                                  MODFLOW-2005     
      U.S. GEOLOGICAL SURVEY MODULAR FINITE-DIFFERENCE GROUND-WATER FLOW MODEL
                            VERSION 1.11.00 8/8/2013

 LIST FILE: supply2.lst
                         UNIT   10

 OPENING supply2.dis
 FILE TYPE:DIS   UNIT   11   STATUS:OLD    
 FORMAT:FORMATTED              ACCESS:SEQUENTIAL          

 OPENING supply2.ba6
 FILE TYPE:BAS6   UNIT   12   STATUS:OLD    
 FORMAT:FORMATTED              ACCESS:SEQUENTIAL          

 OPENING supply2.bc6
 FILE TYPE:BCF6   UNIT   13   STATUS:OLD    
 FORMAT:FORMATTED              ACCESS:SEQUENTIAL          

 OPENING supply2.rch
 FILE TYPE:RCH   UNIT   15   STATUS:OLD    
 FORMAT:FORMATTED              ACCESS:SEQUENTIAL          
#STR     16  supply2.str                                                                                                                                                                                                                                                                                    

 OPENING supply2.sfr
 FILE TYPE:SFR   UNIT   16   STATUS:OLD    
 FORMAT:FORMATTED              ACCESS:SEQUENTIAL          

 OPENING supply2.oc
 FILE TYPE:OC   UNIT   17   STATUS:OLD    
 FORMAT:FORMATTED              ACCESS:SEQUENTIAL          

 OPENING supply2.pcg
 FILE TYPE:PCG   UNIT   18   STATUS:OLD    
 FORMAT:FORMATTED              ACCESS:SEQUENTIAL          

 OPENING supply2.wel
 FILE TYPE:WEL   UNIT   20   STATUS:OLD    
 FORMAT:FORMATTED              ACCESS:SEQUENTIAL          
#GWM     19   supply2.gwm                                                                                                                                                                                                                                                                                   
#DATA    20   supply2.gwmwell                                                                                                                                                                                                                                                                               

 OPENING supply2.sfrout
 FILE TYPE:DATA   UNIT   81   STATUS:UNKNOWN
 FORMAT:FORMATTED              ACCESS:SEQUENTIAL          

 OPENING supply2.hds
 FILE TYPE:DATA   UNIT   51   STATUS:UNKNOWN
 FORMAT:FORMATTED              ACCESS:SEQUENTIAL          

 BAS -- BASIC PACKAGE, VERSION 7, 5/2/2005 INPUT READ FROM UNIT   12

 MODFLOW was compiled using mixed precision
 Precision of REAL variables:           6
 Precision of DOUBLE PRECISION variables:          15

 DISCRETIZATION INPUT DATA READ FROM UNIT   11
    1 LAYERS        25 ROWS        30 COLUMNS
   12 STRESS PERIOD(S) IN SIMULATION
 MODEL TIME UNIT IS DAYS
 MODEL LENGTH UNIT IS UNDEFINED
  Confining bed flag for each layer:
   0

                     DELR =   200.000    

                     DELC =   200.000    

 TOP ELEVATION OF LAYER 1 =   100.000    

   MODEL LAYER BOTTOM EL. =   0.00000     FOR LAYER   1


 STRESS PERIOD     LENGTH       TIME STEPS     MULTIPLIER FOR DELT    SS FLAG
 ----------------------------------------------------------------------------
        1         92.00000          1                    1.500         TR
        2         91.00000          1                    1.500         TR
        3         91.00000          1                    1.500         TR
        4         91.00000          1                    1.500         TR
        5         92.00000          1                    1.500         TR
        6         91.00000          1                    1.500         TR
        7         91.00000          1                    1.500         TR
        8         91.00000          1                    1.500         TR
        9         92.00000          1                    1.500         TR
       10         91.00000          1                    1.500         TR
       11         91.00000          1                    1.500         TR
       12         91.00000          1                    1.500         TR

 TRANSIENT SIMULATION




 #MODOFC transient water supply sample problem                                   
 #                                                                               
 THE FREE FORMAT OPTION HAS BEEN SELECTED



                     BOUNDARY ARRAY FOR LAYER   1
 READING ON UNIT   12 WITH FORMAT: (20I4)              

 AQUIFER HEAD WILL BE SET TO   0.0000     AT ALL NO-FLOW NODES (IBOUND=0).



                       INITIAL HEAD FOR LAYER   1
 READING ON UNIT   12 WITH FORMAT: (10F13.0)           
 # Output control package file for MODFLOW, generated by Flopy.

 OUTPUT CONTROL IS SPECIFIED ONLY AT TIME STEPS FOR WHICH OUTPUT IS DESIRED
 HEADS WILL BE SAVED WITH FORMAT: (30E15.6)           
 SAVED HEADS WILL BE LABELED
 COMPACT CELL-BY-CELL BUDGET FILES WILL BE WRITTEN
 AUXILIARY DATA WILL BE SAVED IN CELL-BY-CELL BUDGET FILES
 HEAD PRINT FORMAT CODE IS   0    DRAWDOWN PRINT FORMAT CODE IS   0
 HEADS WILL BE SAVED ON UNIT   51    DRAWDOWNS WILL BE SAVED ON UNIT   52

 BCF -- BLOCK-CENTERED FLOW PACKAGE, VERSION 7, 5/2/2005
         INPUT READ FROM UNIT 13
 TRANSIENT SIMULATION
 HEAD AT CELLS THAT CONVERT TO DRY=   0.0000    
 WETTING CAPABILITY IS NOT ACTIVE
      LAYER  LAYER-TYPE CODE     INTERBLOCK T
      --------------------------------------------
         1            0          0 -- HARMONIC    

 COLUMN TO ROW ANISOTROPY =   1.00000    

     PRIMARY STORAGE COEF =  5.000000E-02 FOR LAYER   1

 OPENING FILE ON UNIT   99:
 tran.ref                                                                                                                                                                                                



               TRANSMIS. ALONG ROWS FOR LAYER   1
 READING ON UNIT   99 WITH FORMAT: (FREE)              

            1           2           3           4           5           6           7           8           9          10
           11          12          13          14          15          16          17          18          19          20
           21          22          23          24          25          26          27          28          29          30
 ........................................................................................................................
   1    5000.       5000.       5000.       5000.       5000.       5000.       5000.       5000.       5000.       5000.    
        5000.       5000.       5000.       5000.       5000.       5000.       5000.       5000.       5000.       5000.    
        5000.       5000.       5000.       5000.       5000.       5000.       5000.       5000.       5000.       5000.    
   2    5000.       5000.       5000.       5000.       5000.       5000.       5000.       5000.       5000.       5000.    
        5000.       5000.       5000.       5000.       5000.       5000.       5000.       5000.       5000.       5000.    
        5000.       5000.       5000.       5000.       5000.       5000.       5000.       5000.       5000.       5000.    
   3    5000.       5000.       5000.       5000.       5000.       5000.       5000.       5000.       5000.       5000.    
        5000.       5000.       5000.       5000.       5000.       5000.       5000.       5000.       5000.       5000.    
        5000.       5000.       5000.       5000.       5000.       5000.       5000.       5000.       5000.       5000.    
   4    5000.       5000.       5000.       5000.       5000.       5000.       5000.       5000.       5000.       5000.    
        5000.       5000.       5000.       5000.       5000.       5000.       5000.       5000.       5000.       5000.    
        5000.       5000.       5000.       5000.       5000.       5000.       5000.       5000.       5000.       5000.    
   5    5000.       5000.       5000.       5000.       5000.       5000.       5000.       5000.       5000.       5000.    
        5000.       5000.       5000.       5000.       5000.       5000.       5000.       5000.       5000.       5000.    
        5000.       5000.       5000.       5000.       5000.       5000.       5000.       5000.       5000.       5000.    
   6    5000.       5000.       5000.       5000.       5000.       5000.       5000.       5000.       5000.       5000.    
        5000.       5000.       5000.       5000.       5000.       5000.       5000.       5000.       5000.       5000.    
        5000.       5000.       5000.       5000.       5000.       5000.       5000.       5000.       5000.       5000.    
   7    5000.       5000.       5000.       5000.       5000.       5000.       5000.       5000.       5000.       5000.    
        5000.       5000.       5000.       5000.       5000.       5000.       5000.       5000.       5000.       5000.    
        5000.       5000.       5000.       5000.       5000.       5000.       5000.       5000.       5000.       5000.    
   8    5000.       5000.       5000.       5000.       5000.       5000.       5000.       5000.       5000.       5000.    
        5000.       5000.       5000.       5000.       5000.       5000.       5000.       5000.       5000.       5000.    
        5000.       5000.       5000.       5000.       5000.       5000.       5000.       5000.       5000.       5000.    
   9    5000.       5000.       5000.       5000.       5000.       5000.       5000.       5000.       5000.       5000.    
        5000.       5000.       5000.       5000.       5000.       5000.       5000.       5000.       5000.       5000.    
        5000.       5000.       5000.       5000.       5000.       5000.       5000.       5000.       5000.       5000.    
  10    5000.       5000.       5000.       5000.       5000.       5000.       5000.       5000.       5000.       5000.    
        5000.       5000.       5000.       5000.       5000.       5000.       5000.       5000.       5000.       5000.    
        5000.       5000.       5000.       5000.       5000.       5000.       5000.       5000.       5000.       5000.    
  11    5000.       5000.       5000.       5000.       5000.       5000.       5000.       5000.       5000.       5000.    
        5000.       5000.       5000.       5000.       5000.       5000.       5000.       5000.       5000.       5000.    
        5000.       5000.       5000.       5000.       5000.       5000.       5000.       5000.       5000.       5000.    
  12    5000.       5000.       5000.       5000.       5000.       5000.       5000.       5000.       5000.       5000.    
        5000.       5000.       5000.       5000.       5000.       5000.       5000.       5000.       5000.       5000.    
        5000.       5000.       5000.       5000.       5000.       5000.       5000.       5000.       5000.       5000.    
  13    5000.       5000.       5000.       5000.       5000.       5000.       5000.       5000.       5000.       5000.    
        5000.       5000.       5000.       5000.       5000.       5000.       5000.       5000.       5000.       5000.    
        5000.       5000.       5000.       5000.       5000.       5000.       5000.       5000.       5000.       5000.    
  14    5000.       5000.       5000.       5000.       5000.       5000.       5000.       5000.       5000.       5000.    
        5000.       5000.       5000.       5000.       5000.       5000.       5000.       5000.       5000.       5000.    
        5000.       5000.       5000.       5000.       5000.       5000.       5000.       5000.       5000.       5000.    
  15    5000.       5000.       5000.       5000.       5000.       5000.       5000.       5000.       5000.       5000.    
        5000.       5000.       5000.       5000.       5000.       5000.       5000.       5000.       5000.       5000.    
        5000.       5000.       5000.       5000.       5000.       5000.       5000.       5000.       5000.       5000.    
  16    5000.       5000.       5000.       5000.       5000.       5000.       5000.       5000.       5000.       5000.    
        5000.       5000.       5000.       5000.       5000.       5000.       5000.       5000.       5000.       5000.    
        5000.       5000.       5000.       5000.       5000.       5000.       5000.       5000.       5000.       5000.    
  17    5000.       5000.       5000.       5000.       5000.       5000.       5000.       5000.       5000.       5000.    
        5000.       5000.       5000.       5000.       5000.       5000.       5000.       5000.       5000.       5000.    
        5000.       5000.       5000.       5000.       5000.       5000.       5000.       5000.       5000.       5000.    
  18    5000.       5000.       5000.       5000.       5000.       5000.       5000.       5000.       5000.       5000.    
        5000.       5000.       5000.       5000.       5000.       5000.       5000.       5000.       5000.       5000.    
        5000.       5000.       5000.       5000.       5000.       5000.       5000.       5000.       5000.       5000.    
  19    5000.       5000.       5000.       5000.       5000.       5000.       5000.       5000.       5000.       5000.    
        5000.       5000.       5000.       5000.       5000.       5000.       5000.       5000.       5000.       5000.    
        5000.       5000.       5000.       5000.       5000.       5000.       5000.       5000.       5000.       5000.    
  20    5000.       5000.       5000.       5000.       5000.       5000.       5000.       5000.       5000.       5000.    
        5000.       5000.       5000.       5000.       5000.       5000.       5000.       5000.       5000.       5000.    
        5000.       5000.       5000.       5000.       5000.       5000.       5000.       5000.       5000.       5000.    
  21    5000.       5000.       5000.       5000.       5000.       5000.       5000.       5000.       5000.       5000.    
        5000.       5000.       5000.       5000.       5000.       5000.       5000.       5000.       5000.       5000.    
        5000.       5000.       5000.       5000.       5000.       5000.       5000.       5000.       5000.       5000.    
  22    5000.       5000.       5000.       5000.       5000.       5000.       5000.       5000.       5000.       5000.    
        5000.       5000.       5000.       5000.       5000.       5000.       5000.       5000.       5000.       5000.    
        5000.       5000.       5000.       5000.       5000.       5000.       5000.       5000.       5000.       5000.    
  23    5000.       5000.       5000.       5000.       5000.       5000.       5000.       5000.       5000.       5000.    
        5000.       5000.       5000.       5000.       5000.       5000.       5000.       5000.       5000.       5000.    
        5000.       5000.       5000.       5000.       5000.       5000.       5000.       5000.       5000.       5000.    
  24    5000.       5000.       5000.       5000.       5000.       5000.       5000.       5000.       5000.       5000.    
        5000.       5000.       5000.       5000.       5000.       5000.       5000.       5000.       5000.       5000.    
        5000.       5000.       5000.       5000.       5000.       5000.       5000.       5000.       5000.       5000.    
  25    5000.       5000.       5000.       5000.       5000.       5000.       5000.       5000.       5000.       5000.    
        5000.       5000.       5000.       5000.       5000.       5000.       5000.       5000.       5000.       5000.    
        5000.       5000.       5000.       5000.       5000.       5000.       5000.       5000.       5000.       5000.    

 WEL -- WELL PACKAGE, VERSION 7, 5/2/2005 INPUT READ FROM UNIT   20
 # WEL package for  MODFLOW-2005, generated by Flopy.
 No named parameters
 MAXIMUM OF    690 ACTIVE WELLS AT ONE TIME


     0 Well parameters

 RCH -- RECHARGE PACKAGE, VERSION 7, 5/2/2005 INPUT READ FROM UNIT   15
 No named parameters
 OPTION 1 -- RECHARGE TO TOP LAYER


     0 Recharge parameters

 SFR7 -- STREAMFLOW ROUTING PACKAGE, VERSION 1.0.7, 2013-01-15
         INPUT READ FROM UNIT  16
 #SUPPLY2 Sample Problem, SFR file
 #March 2009
 No named parameters
 Segment information will not be 
 read by reach
 No named parameters
 No specifed inflow files


 NUMBER OF STREAM REACHES IS   40

 NUMBER OF STREAM SEGMENTS IS    3

 NUMBER OF STREAM PARAMETERS IS    0

 NUMBER OF STREAM SEGMENTS DEFINED USING PARAMETERS IS              0

 MAXIMUM ERROR FOR STREAM LEAKAGE RATES IS  1.00E-04

 CONSTANT FOR MANNINGS EQUATION IS  1.2839E+05



 STREAM OUTPUT WILL BE WRITTEN TO FILE ON UNIT   81


   STREAM NETWORK DESCRIPTION: 

   LAYER    ROW    COL   SEGMENT   REACH     LENGTH
                          NUMBER   NUMBER    IN CELL        
   --------------------------------------------------
      1     13      1       1        1    2.0000E+02
      1     13      2       1        2    2.0000E+02
      1     14      3       1        3    2.0000E+02
      1     15      4       1        4    2.0000E+02
      1     16      5       1        5    2.0000E+02
      1     16      6       1        6    2.0000E+02
      1     16      7       1        7    2.0000E+02
      1     16      8       1        8    2.0000E+02
      1     16      9       1        9    2.0000E+02
      1     16     10       1       10    2.0000E+02
      1     16     11       1       11    2.0000E+02
      1     16     12       1       12    2.0000E+02
      1     15     13       1       13    2.0000E+02
      1     14     14       1       14    2.0000E+02
      1     13     15       1       15    2.0000E+02
      1     12     16       1       16    2.0000E+02
      1     12     17       1       17    2.0000E+02
      1     12     18       1       18    2.0000E+02
      1     12     19       1       19    2.0000E+02
      1     13     20       1       20    2.0000E+02
      1     14     21       1       21    2.0000E+02
      1     14     22       1       22    2.0000E+02
      1      9     30       2        1    2.0000E+02
      1      9     29       2        2    2.0000E+02
      1      9     28       2        3    2.0000E+02
      1      9     27       2        4    2.0000E+02
      1     10     26       2        5    2.0000E+02
      1     11     25       2        6    2.0000E+02
      1     12     24       2        7    2.0000E+02
      1     13     23       2        8    2.0000E+02
      1     14     22       2        9    2.0000E+02
      1     14     22       3        1    2.0000E+02
      1     15     23       3        2    2.0000E+02
      1     15     24       3        3    2.0000E+02
      1     15     25       3        4    2.0000E+02
      1     15     26       3        5    2.0000E+02
      1     16     27       3        6    2.0000E+02
      1     17     28       3        7    2.0000E+02
      1     18     29       3        8    2.0000E+02
      1     18     30       3        9    2.0000E+02




 PCG -- CONJUGATE-GRADIENT SOLUTION PACKAGE, VERSION 7, 5/2/2005
 MAXIMUM OF    500 CALLS OF SOLUTION ROUTINE
 MAXIMUM OF      5 INTERNAL ITERATIONS PER CALL TO SOLUTION ROUTINE
 MATRIX PRECONDITIONING TYPE :    1



                                    SOLUTION BY THE CONJUGATE-GRADIENT METHOD
                                   -------------------------------------------
                    MAXIMUM NUMBER OF CALLS TO PCG ROUTINE =      500
                        MAXIMUM ITERATIONS PER CALL TO PCG =        5
                               MATRIX PRECONDITIONING TYPE =        1
        RELAXATION FACTOR (ONLY USED WITH PRECOND. TYPE 1) =    0.10000E+01
 PARAMETER OF POLYNOMIAL PRECOND. = 2 (2) OR IS CALCULATED :        0
                         HEAD CHANGE CRITERION FOR CLOSURE =    0.10000E-04
                     RESIDUAL CHANGE CRITERION FOR CLOSURE =    0.10000E+01
            PCG HEAD AND RESIDUAL CHANGE PRINTOUT INTERVAL =        1
     PRINTING FROM SOLVER IS LIMITED(1) OR SUPPRESSED (>1) =        1
                            STEADY-STATE DAMPING PARAMETER =    0.10000E+01
                               TRANSIENT DAMPING PARAMETER =    0.10000E+01
1
                            STRESS PERIOD NO.    1, LENGTH =   92.00000    
                            -----------------------------------------------

                              NUMBER OF TIME STEPS =     1

                               MULTIPLIER FOR DELT =     1.500

                            INITIAL TIME STEP SIZE =   92.00000    

 WELL NO.  LAYER   ROW   COL   STRESS RATE         
 --------------------------------------------------
      1      1      2      1       0.000    
      2      1      2      2       0.000    
      3      1      2      3       0.000    
      4      1      2      4       0.000    
      5      1      2      5       0.000    
      6      1      2      6       0.000    
      7      1      2      7       0.000    
      8      1      2      8       0.000    
      9      1      2      9       0.000    
     10      1      2     10       0.000    
     11      1      2     11       0.000    
     12      1      2     12       0.000    
     13      1      2     13       0.000    
     14      1      2     14       0.000    
     15      1      2     15       0.000    
     16      1      2     16       0.000    
     17      1      2     17       0.000    
     18      1      2     18       0.000    
     19      1      2     19       0.000    
     20      1      2     20       0.000    
     21      1      2     21       0.000    
     22      1      2     22       0.000    
     23      1      2     23       0.000    
     24      1      2     24       0.000    
     25      1      2     25       0.000    
     26      1      2     26       0.000    
     27      1      2     27       0.000    
     28      1      2     28       0.000    
     29      1      2     29       0.000    
     30      1      2     30       0.000    
     31      1      3      1       0.000    
     32      1      3      2       0.000    
     33      1      3      3       0.000    
     34      1      3      4       0.000    
     35      1      3      5       0.000    
     36      1      3      6       0.000    
     37      1      3      7       0.000    
     38      1      3      8       0.000    
     39      1      3      9       0.000    
     40      1      3     10       0.000    
     41      1      3     11       0.000    
     42      1      3     12       0.000    
     43      1      3     13       0.000    
     44      1      3     14       0.000    
     45      1      3     15       0.000    
     46      1      3     16       0.000    
     47      1      3     17       0.000    
     48      1      3     18       0.000    
     49      1      3     19       0.000    
     50      1      3     20       0.000    
     51      1      3     21       0.000    
     52      1      3     22       0.000    
     53      1      3     23       0.000    
     54      1      3     24       0.000    
     55      1      3     25       0.000    
     56      1      3     26       0.000    
     57      1      3     27       0.000    
     58      1      3     28       0.000    
     59      1      3     29       0.000    
     60      1      3     30       0.000    
     61      1      4      1       0.000    
     62      1      4      2       0.000    
     63      1      4      3       0.000    
     64      1      4      4       0.000    
     65      1      4      5       0.000    
     66      1      4      6       0.000    
     67      1      4      7       0.000    
     68      1      4      8       0.000    
     69      1      4      9       0.000    
     70      1      4     10       0.000    
     71      1      4     11       0.000    
     72      1      4     12       0.000    
     73      1      4     13       0.000    
     74      1      4     14       0.000    
     75      1      4     15       0.000    
     76      1      4     16       0.000    
     77      1      4     17       0.000    
     78      1      4     18       0.000    
     79      1      4     19       0.000    
     80      1      4     20       0.000    
     81      1      4     21       0.000    
     82      1      4     22       0.000    
     83      1      4     23       0.000    
     84      1      4     24       0.000    
     85      1      4     25       0.000    
     86      1      4     26       0.000    
     87      1      4     27       0.000    
     88      1      4     28       0.000    
     89      1      4     29       0.000    
     90      1      4     30       0.000    
     91      1      5      1       0.000    
     92      1      5      2       0.000    
     93      1      5      3       0.000    
     94      1      5      4       0.000    
     95      1      5      5       0.000    
     96      1      5      6       0.000    
     97      1      5      7       0.000    
     98      1      5      8       0.000    
     99      1      5      9       0.000    
    100      1      5     10       0.000    
    101      1      5     11       0.000    
    102      1      5     12       0.000    
    103      1      5     13       0.000    
    104      1      5     14       0.000    
    105      1      5     15       0.000    
    106      1      5     16       0.000    
    107      1      5     17       0.000    
    108      1      5     18       0.000    
    109      1      5     19       0.000    
    110      1      5     20       0.000    
    111      1      5     21       0.000    
    112      1      5     22       0.000    
    113      1      5     23       0.000    
    114      1      5     24       0.000    
    115      1      5     25       0.000    
    116      1      5     26       0.000    
    117      1      5     27       0.000    
    118      1      5     28       0.000    
    119      1      5     29       0.000    
    120      1      5     30       0.000    
    121      1      6      1       0.000    
    122      1      6      2       0.000    
    123      1      6      3       0.000    
    124      1      6      4       0.000    
    125      1      6      5       0.000    
    126      1      6      6       0.000    
    127      1      6      7       0.000    
    128      1      6      8       0.000    
    129      1      6      9       0.000    
    130      1      6     10       0.000    
    131      1      6     11       0.000    
    132      1      6     12       0.000    
    133      1      6     13       0.000    
    134      1      6     14       0.000    
    135      1      6     15       0.000    
    136      1      6     16       0.000    
    137      1      6     17       0.000    
    138      1      6     18       0.000    
    139      1      6     19       0.000    
    140      1      6     20       0.000    
    141      1      6     21       0.000    
    142      1      6     22       0.000    
    143      1      6     23       0.000    
    144      1      6     24       0.000    
    145      1      6     25       0.000    
    146      1      6     26       0.000    
    147      1      6     27       0.000    
    148      1      6     28       0.000    
    149      1      6     29       0.000    
    150      1      6     30       0.000    
    151      1      7      1       0.000    
    152      1      7      2       0.000    
    153      1      7      3       0.000    
    154      1      7      4       0.000    
    155      1      7      5       0.000    
    156      1      7      6       0.000    
    157      1      7      7       0.000    
    158      1      7      8       0.000    
    159      1      7      9       0.000    
    160      1      7     10       0.000    
    161      1      7     11       0.000    
    162      1      7     12       0.000    
    163      1      7     13       0.000    
    164      1      7     14       0.000    
    165      1      7     15       0.000    
    166      1      7     16       0.000    
    167      1      7     17       0.000    
    168      1      7     18       0.000    
    169      1      7     19       0.000    
    170      1      7     20       0.000    
    171      1      7     21       0.000    
    172      1      7     22       0.000    
    173      1      7     23       0.000    
    174      1      7     24       0.000    
    175      1      7     25       0.000    
    176      1      7     26       0.000    
    177      1      7     27       0.000    
    178      1      7     28       0.000    
    179      1      7     29       0.000    
    180      1      7     30       0.000    
    181      1      8      1       0.000    
    182      1      8      2       0.000    
    183      1      8      3       0.000    
    184      1      8      4       0.000    
    185      1      8      5       0.000    
    186      1      8      6       0.000    
    187      1      8      7       0.000    
    188      1      8      8       0.000    
    189      1      8      9       0.000    
    190      1      8     10       0.000    
    191      1      8     11       0.000    
    192      1      8     12       0.000    
    193      1      8     13       0.000    
    194      1      8     14       0.000    
    195      1      8     15       0.000    
    196      1      8     16       0.000    
    197      1      8     17       0.000    
    198      1      8     18       0.000    
    199      1      8     19       0.000    
    200      1      8     20       0.000    
    201      1      8     21       0.000    
    202      1      8     22       0.000    
    203      1      8     23       0.000    
    204      1      8     24       0.000    
    205      1      8     25       0.000    
    206      1      8     26       0.000    
    207      1      8     27       0.000    
    208      1      8     28       0.000    
    209      1      8     29       0.000    
    210      1      8     30       0.000    
    211      1      9      1       0.000    
    212      1      9      2       0.000    
    213      1      9      3       0.000    
    214      1      9      4       0.000    
    215      1      9      5       0.000    
    216      1      9      6       0.000    
    217      1      9      7       0.000    
    218      1      9      8       0.000    
    219      1      9      9       0.000    
    220      1      9     10       0.000    
    221      1      9     11       0.000    
    222      1      9     12       0.000    
    223      1      9     13       0.000    
    224      1      9     14       0.000    
    225      1      9     15       0.000    
    226      1      9     16       0.000    
    227      1      9     17       0.000    
    228      1      9     18       0.000    
    229      1      9     19       0.000    
    230      1      9     20       0.000    
    231      1      9     21       0.000    
    232      1      9     22       0.000    
    233      1      9     23       0.000    
    234      1      9     24       0.000    
    235      1      9     25       0.000    
    236      1      9     26       0.000    
    237      1      9     27       0.000    
    238      1      9     28       0.000    
    239      1      9     29       0.000    
    240      1      9     30       0.000    
    241      1     10      1       0.000    
    242      1     10      2       0.000    
    243      1     10      3       0.000    
    244      1     10      4       0.000    
    245      1     10      5       0.000    
    246      1     10      6       0.000    
    247      1     10      7       0.000    
    248      1     10      8       0.000    
    249      1     10      9       0.000    
    250      1     10     10       0.000    
    251      1     10     11       0.000    
    252      1     10     12       0.000    
    253      1     10     13       0.000    
    254      1     10     14       0.000    
    255      1     10     15       0.000    
    256      1     10     16       0.000    
    257      1     10     17       0.000    
    258      1     10     18       0.000    
    259      1     10     19       0.000    
    260      1     10     20       0.000    
    261      1     10     21       0.000    
    262      1     10     22       0.000    
    263      1     10     23       0.000    
    264      1     10     24       0.000    
    265      1     10     25       0.000    
    266      1     10     26       0.000    
    267      1     10     27       0.000    
    268      1     10     28       0.000    
    269      1     10     29       0.000    
    270      1     10     30       0.000    
    271      1     11      1       0.000    
    272      1     11      2       0.000    
    273      1     11      3       0.000    
    274      1     11      4       0.000    
    275      1     11      5       0.000    
    276      1     11      6       0.000    
    277      1     11      7       0.000    
    278      1     11      8       0.000    
    279      1     11      9       0.000    
    280      1     11     10       0.000    
    281      1     11     11       0.000    
    282      1     11     12       0.000    
    283      1     11     13       0.000    
    284      1     11     14       0.000    
    285      1     11     15       0.000    
    286      1     11     16       0.000    
    287      1     11     17       0.000    
    288      1     11     18       0.000    
    289      1     11     19       0.000    
    290      1     11     20       0.000    
    291      1     11     21       0.000    
    292      1     11     22       0.000    
    293      1     11     23       0.000    
    294      1     11     24       0.000    
    295      1     11     25       0.000    
    296      1     11     26       0.000    
    297      1     11     27       0.000    
    298      1     11     28       0.000    
    299      1     11     29       0.000    
    300      1     11     30       0.000    
    301      1     12      1       0.000    
    302      1     12      2       0.000    
    303      1     12      3       0.000    
    304      1     12      4       0.000    
    305      1     12      5       0.000    
    306      1     12      6       0.000    
    307      1     12      7       0.000    
    308      1     12      8       0.000    
    309      1     12      9       0.000    
    310      1     12     10       0.000    
    311      1     12     11       0.000    
    312      1     12     12       0.000    
    313      1     12     13       0.000    
    314      1     12     14       0.000    
    315      1     12     15       0.000    
    316      1     12     16       0.000    
    317      1     12     17       0.000    
    318      1     12     18       0.000    
    319      1     12     19       0.000    
    320      1     12     20       0.000    
    321      1     12     21       0.000    
    322      1     12     22       0.000    
    323      1     12     23       0.000    
    324      1     12     24       0.000    
    325      1     12     25       0.000    
    326      1     12     26       0.000    
    327      1     12     27       0.000    
    328      1     12     28       0.000    
    329      1     12     29       0.000    
    330      1     12     30       0.000    
    331      1     13      1       0.000    
    332      1     13      2       0.000    
    333      1     13      3       0.000    
    334      1     13      4       0.000    
    335      1     13      5       0.000    
    336      1     13      6       0.000    
    337      1     13      7       0.000    
    338      1     13      8       0.000    
    339      1     13      9       0.000    
    340      1     13     10       0.000    
    341      1     13     11       0.000    
    342      1     13     12       0.000    
    343      1     13     13       0.000    
    344      1     13     14       0.000    
    345      1     13     15       0.000    
    346      1     13     16       0.000    
    347      1     13     17       0.000    
    348      1     13     18       0.000    
    349      1     13     19       0.000    
    350      1     13     20       0.000    
    351      1     13     21       0.000    
    352      1     13     22       0.000    
    353      1     13     23       0.000    
    354      1     13     24       0.000    
    355      1     13     25       0.000    
    356      1     13     26       0.000    
    357      1     13     27       0.000    
    358      1     13     28       0.000    
    359      1     13     29       0.000    
    360      1     13     30       0.000    
    361      1     14      1       0.000    
    362      1     14      2       0.000    
    363      1     14      3       0.000    
    364      1     14      4       0.000    
    365      1     14      5       0.000    
    366      1     14      6       0.000    
    367      1     14      7       0.000    
    368      1     14      8       0.000    
    369      1     14      9       0.000    
    370      1     14     10       0.000    
    371      1     14     11       0.000    
    372      1     14     12       0.000    
    373      1     14     13       0.000    
    374      1     14     14       0.000    
    375      1     14     15       0.000    
    376      1     14     16       0.000    
    377      1     14     17       0.000    
    378      1     14     18       0.000    
    379      1     14     19       0.000    
    380      1     14     20       0.000    
    381      1     14     21       0.000    
    382      1     14     22       0.000    
    383      1     14     23       0.000    
    384      1     14     24       0.000    
    385      1     14     25       0.000    
    386      1     14     26       0.000    
    387      1     14     27       0.000    
    388      1     14     28       0.000    
    389      1     14     29       0.000    
    390      1     14     30       0.000    
    391      1     15      1       0.000    
    392      1     15      2       0.000    
    393      1     15      3       0.000    
    394      1     15      4       0.000    
    395      1     15      5       0.000    
    396      1     15      6       0.000    
    397      1     15      7       0.000    
    398      1     15      8       0.000    
    399      1     15      9       0.000    
    400      1     15     10       0.000    
    401      1     15     11       0.000    
    402      1     15     12       0.000    
    403      1     15     13       0.000    
    404      1     15     14       0.000    
    405      1     15     15       0.000    
    406      1     15     16       0.000    
    407      1     15     17       0.000    
    408      1     15     18       0.000    
    409      1     15     19       0.000    
    410      1     15     20       0.000    
    411      1     15     21       0.000    
    412      1     15     22       0.000    
    413      1     15     23       0.000    
    414      1     15     24       0.000    
    415      1     15     25       0.000    
    416      1     15     26       0.000    
    417      1     15     27       0.000    
    418      1     15     28       0.000    
    419      1     15     29       0.000    
    420      1     15     30       0.000    
    421      1     16      1       0.000    
    422      1     16      2       0.000    
    423      1     16      3       0.000    
    424      1     16      4       0.000    
    425      1     16      5       0.000    
    426      1     16      6       0.000    
    427      1     16      7       0.000    
    428      1     16      8       0.000    
    429      1     16      9       0.000    
    430      1     16     10       0.000    
    431      1     16     11       0.000    
    432      1     16     12       0.000    
    433      1     16     13       0.000    
    434      1     16     14       0.000    
    435      1     16     15       0.000    
    436      1     16     16       0.000    
    437      1     16     17       0.000    
    438      1     16     18       0.000    
    439      1     16     19       0.000    
    440      1     16     20       0.000    
    441      1     16     21       0.000    
    442      1     16     22       0.000    
    443      1     16     23       0.000    
    444      1     16     24       0.000    
    445      1     16     25       0.000    
    446      1     16     26       0.000    
    447      1     16     27       0.000    
    448      1     16     28       0.000    
    449      1     16     29       0.000    
    450      1     16     30       0.000    
    451      1     17      1       0.000    
    452      1     17      2       0.000    
    453      1     17      3       0.000    
    454      1     17      4       0.000    
    455      1     17      5       0.000    
    456      1     17      6       0.000    
    457      1     17      7       0.000    
    458      1     17      8       0.000    
    459      1     17      9       0.000    
    460      1     17     10       0.000    
    461      1     17     11       0.000    
    462      1     17     12       0.000    
    463      1     17     13       0.000    
    464      1     17     14       0.000    
    465      1     17     15       0.000    
    466      1     17     16       0.000    
    467      1     17     17       0.000    
    468      1     17     18       0.000    
    469      1     17     19       0.000    
    470      1     17     20       0.000    
    471      1     17     21       0.000    
    472      1     17     22       0.000    
    473      1     17     23       0.000    
    474      1     17     24       0.000    
    475      1     17     25       0.000    
    476      1     17     26       0.000    
    477      1     17     27       0.000    
    478      1     17     28       0.000    
    479      1     17     29       0.000    
    480      1     17     30       0.000    
    481      1     18      1       0.000    
    482      1     18      2       0.000    
    483      1     18      3       0.000    
    484      1     18      4       0.000    
    485      1     18      5       0.000    
    486      1     18      6       0.000    
    487      1     18      7       0.000    
    488      1     18      8       0.000    
    489      1     18      9       0.000    
    490      1     18     10       0.000    
    491      1     18     11       0.000    
    492      1     18     12       0.000    
    493      1     18     13       0.000    
    494      1     18     14       0.000    
    495      1     18     15       0.000    
    496      1     18     16       0.000    
    497      1     18     17       0.000    
    498      1     18     18       0.000    
    499      1     18     19       0.000    
    500      1     18     20       0.000    
    501      1     18     21       0.000    
    502      1     18     22       0.000    
    503      1     18     23       0.000    
    504      1     18     24       0.000    
    505      1     18     25       0.000    
    506      1     18     26       0.000    
    507      1     18     27       0.000    
    508      1     18     28       0.000    
    509      1     18     29       0.000    
    510      1     18     30       0.000    
    511      1     19      1       0.000    
    512      1     19      2       0.000    
    513      1     19      3       0.000    
    514      1     19      4       0.000    
    515      1     19      5       0.000    
    516      1     19      6       0.000    
    517      1     19      7       0.000    
    518      1     19      8       0.000    
    519      1     19      9       0.000    
    520      1     19     10       0.000    
    521      1     19     11       0.000    
    522      1     19     12       0.000    
    523      1     19     13       0.000    
    524      1     19     14       0.000    
    525      1     19     15       0.000    
    526      1     19     16       0.000    
    527      1     19     17       0.000    
    528      1     19     18       0.000    
    529      1     19     19       0.000    
    530      1     19     20       0.000    
    531      1     19     21       0.000    
    532      1     19     22       0.000    
    533      1     19     23       0.000    
    534      1     19     24       0.000    
    535      1     19     25       0.000    
    536      1     19     26       0.000    
    537      1     19     27       0.000    
    538      1     19     28       0.000    
    539      1     19     29       0.000    
    540      1     19     30       0.000    
    541      1     20      1       0.000    
    542      1     20      2       0.000    
    543      1     20      3       0.000    
    544      1     20      4       0.000    
    545      1     20      5       0.000    
    546      1     20      6       0.000    
    547      1     20      7       0.000    
    548      1     20      8       0.000    
    549      1     20      9       0.000    
    550      1     20     10       0.000    
    551      1     20     11       0.000    
    552      1     20     12       0.000    
    553      1     20     13       0.000    
    554      1     20     14       0.000    
    555      1     20     15       0.000    
    556      1     20     16       0.000    
    557      1     20     17       0.000    
    558      1     20     18       0.000    
    559      1     20     19       0.000    
    560      1     20     20       0.000    
    561      1     20     21       0.000    
    562      1     20     22       0.000    
    563      1     20     23       0.000    
    564      1     20     24       0.000    
    565      1     20     25       0.000    
    566      1     20     26       0.000    
    567      1     20     27       0.000    
    568      1     20     28       0.000    
    569      1     20     29       0.000    
    570      1     20     30       0.000    
    571      1     21      1       0.000    
    572      1     21      2       0.000    
    573      1     21      3       0.000    
    574      1     21      4       0.000    
    575      1     21      5       0.000    
    576      1     21      6       0.000    
    577      1     21      7       0.000    
    578      1     21      8       0.000    
    579      1     21      9       0.000    
    580      1     21     10       0.000    
    581      1     21     11       0.000    
    582      1     21     12       0.000    
    583      1     21     13       0.000    
    584      1     21     14       0.000    
    585      1     21     15       0.000    
    586      1     21     16       0.000    
    587      1     21     17       0.000    
    588      1     21     18       0.000    
    589      1     21     19       0.000    
    590      1     21     20       0.000    
    591      1     21     21       0.000    
    592      1     21     22       0.000    
    593      1     21     23       0.000    
    594      1     21     24       0.000    
    595      1     21     25       0.000    
    596      1     21     26       0.000    
    597      1     21     27       0.000    
    598      1     21     28       0.000    
    599      1     21     29       0.000    
    600      1     21     30       0.000    
    601      1     22      1       0.000    
    602      1     22      2       0.000    
    603      1     22      3       0.000    
    604      1     22      4       0.000    
    605      1     22      5       0.000    
    606      1     22      6       0.000    
    607      1     22      7       0.000    
    608      1     22      8       0.000    
    609      1     22      9       0.000    
    610      1     22     10       0.000    
    611      1     22     11       0.000    
    612      1     22     12       0.000    
    613      1     22     13       0.000    
    614      1     22     14       0.000    
    615      1     22     15       0.000    
    616      1     22     16       0.000    
    617      1     22     17       0.000    
    618      1     22     18       0.000    
    619      1     22     19       0.000    
    620      1     22     20       0.000    
    621      1     22     21       0.000    
    622      1     22     22       0.000    
    623      1     22     23       0.000    
    624      1     22     24       0.000    
    625      1     22     25       0.000    
    626      1     22     26       0.000    
    627      1     22     27       0.000    
    628      1     22     28       0.000    
    629      1     22     29       0.000    
    630      1     22     30       0.000    
    631      1     23      1       0.000    
    632      1     23      2       0.000    
    633      1     23      3       0.000    
    634      1     23      4       0.000    
    635      1     23      5       0.000    
    636      1     23      6       0.000    
    637      1     23      7       0.000    
    638      1     23      8       0.000    
    639      1     23      9       0.000    
    640      1     23     10       0.000    
    641      1     23     11       0.000    
    642      1     23     12       0.000    
    643      1     23     13       0.000    
    644      1     23     14       0.000    
    645      1     23     15       0.000    
    646      1     23     16       0.000    
    647      1     23     17       0.000    
    648      1     23     18       0.000    
    649      1     23     19       0.000    
    650      1     23     20       0.000    
    651      1     23     21       0.000    
    652      1     23     22       0.000    
    653      1     23     23       0.000    
    654      1     23     24       0.000    
    655      1     23     25       0.000    
    656      1     23     26       0.000    
    657      1     23     27       0.000    
    658      1     23     28       0.000    
    659      1     23     29       0.000    
    660      1     23     30       0.000    
    661      1     24      1       0.000    
    662      1     24      2       0.000    
    663      1     24      3       0.000    
    664      1     24      4       0.000    
    665      1     24      5       0.000    
    666      1     24      6       0.000    
    667      1     24      7       0.000    
    668      1     24      8       0.000    
    669      1     24      9       0.000    
    670      1     24     10       0.000    
    671      1     24     11       0.000    
    672      1     24     12       0.000    
    673      1     24     13       0.000    
    674      1     24     14       0.000    
    675      1     24     15       0.000    
    676      1     24     16       0.000    
    677      1     24     17       0.000    
    678      1     24     18       0.000    
    679      1     24     19       0.000    
    680      1     24     20       0.000    
    681      1     24     21       0.000    
    682      1     24     22       0.000    
    683      1     24     23       0.000    
    684      1     24     24       0.000    
    685      1     24     25       0.000    
    686      1     24     26       0.000    
    687      1     24     27       0.000    
    688      1     24     28       0.000    
    689      1     24     29       0.000    
    690      1     24     30       0.000    

    690 WELLS

                 RECHARGE =  5.000000E-04



 CLASSIFICATION & COUNT OF STREAM SEGMENTS BASED ON SOURCE OF INFLOW:

                HEADWATER     DIVERSION     RECEIVES TRIBUTARY FLOW
                ---------     ---------     -----------------------
                     2              0               1



                    INPUT DATA FOR EACH STREAM SEGMENT
 ---------------------------------------------------------------------------------------------

 SEGMENT    SEG.     INFLOW   OVERLAND   STREAM    STREAM   ICALC  OUTFLOW  DIVERSION PRIORITY
    NO.    LENGTH     RATE     RUNOFF      ET       PPT.    METH.  TO SEG.  FROM SEG.    NO.

      1  4.400E+03 1.000E+05 0.000E+00 0.000E+00 0.000E+00    1        3        0        0
      2  1.800E+03 5.000E+04 0.000E+00 0.000E+00 0.000E+00    1        3        0        0
      3  1.800E+03 0.000E+00 0.000E+00 0.000E+00 0.000E+00    1        0        0        0


         STREAMBED PROPERTIES AND STREAM DIMENSIONS

 SEGMENT     BED HYD. COND.      BED THICKNESS     ELEV.-TOP OF BED     WIDTH OF STREAM     DEPTH OF STREAM    STREAM ROUGHNESS
    No.     UPPER     LOWER     UPPER     LOWER     UPPER     LOWER     UPPER     LOWER     UPPER     LOWER   CHANNEL      BANK

     1  5.000E+00 5.000E+00 1.000E+00 1.000E+00 4.850E+01 3.800E+01 2.000E+01 2.000E+01                     5.000E-02
     2  5.000E+00 5.000E+00 1.000E+00 1.000E+00 4.025E+01 3.800E+01 2.000E+01 2.000E+01                     5.000E-02
     3  5.000E+00 5.000E+00 1.000E+00 1.000E+00 3.800E+01 3.000E+01 2.000E+01 2.000E+01                     5.000E-02




 SOLVING FOR HEAD 


     7 CALLS TO PCG ROUTINE FOR TIME STEP   1 IN STRESS PERIOD    1
    28 TOTAL ITERATIONS

 OUTPUT CONTROL FOR STRESS PERIOD    1   TIME STEP    1
    SAVE HEAD FOR ALL LAYERS
    SAVE BUDGET



 STREAM LISTING     PERIOD      1   STEP        1

 LAYER ROW COL. STREAM  RCH.  FLOW INTO     FLOW TO   FLOW OUT OF   OVRLND.     DIRECT     STREAM       STREAM     STREAM     STREAM   STREAMBED  STREAMBED
                SEG.NO.  NO.  STRM. RCH.    AQUIFER    STRM. RCH.    RUNOFF     PRECIP       ET          HEAD       DEPTH      WIDTH   CONDCTNC.   GRADIENT

   1   13    1     1     1    1.0000E+05 -3.1699E+04   1.3170E+05  0.000E+00  0.000E+00  0.000E+00  4.84194E+01  1.580E-01  2.000E+01  2.000E+04 -1.585E+00
   1   13    2     1     2    1.3170E+05 -4.2170E+04   1.7387E+05  0.000E+00  0.000E+00  0.000E+00  4.79706E+01  1.865E-01  2.000E+01  2.000E+04 -2.109E+00
   1   14    3     1     3    1.7387E+05 -3.7708E+04   2.1158E+05  0.000E+00  0.000E+00  0.000E+00  4.75212E+01  2.144E-01  2.000E+01  2.000E+04 -1.885E+00
   1   15    4     1     4    2.1158E+05 -3.6761E+04   2.4834E+05  0.000E+00  0.000E+00  0.000E+00  4.70679E+01  2.384E-01  2.000E+01  2.000E+04 -1.838E+00
   1   16    5     1     5    2.4834E+05 -3.7698E+04   2.8604E+05  0.000E+00  0.000E+00  0.000E+00  4.66131E+01  2.609E-01  2.000E+01  2.000E+04 -1.885E+00
   1   16    6     1     6    2.8604E+05 -3.2976E+04   3.1901E+05  0.000E+00  0.000E+00  0.000E+00  4.61560E+01  2.810E-01  2.000E+01  2.000E+04 -1.649E+00
   1   16    7     1     7    3.1901E+05 -3.2798E+04   3.5181E+05  0.000E+00  0.000E+00  0.000E+00  4.56967E+01  2.990E-01  2.000E+01  2.000E+04 -1.640E+00
   1   16    8     1     8    3.5181E+05 -3.3019E+04   3.8483E+05  0.000E+00  0.000E+00  0.000E+00  4.52367E+01  3.163E-01  2.000E+01  2.000E+04 -1.651E+00
   1   16    9     1     9    3.8483E+05 -3.3127E+04   4.1796E+05  0.000E+00  0.000E+00  0.000E+00  4.47762E+01  3.330E-01  2.000E+01  2.000E+04 -1.656E+00
   1   16   10     1    10    4.1796E+05 -3.3174E+04   4.5113E+05  0.000E+00  0.000E+00  0.000E+00  4.43152E+01  3.493E-01  2.000E+01  2.000E+04 -1.659E+00
   1   16   11     1    11    4.5113E+05 -3.3851E+04   4.8498E+05  0.000E+00  0.000E+00  0.000E+00  4.38538E+01  3.652E-01  2.000E+01  2.000E+04 -1.693E+00
   1   16   12     1    12    4.8498E+05 -3.9962E+04   5.2494E+05  0.000E+00  0.000E+00  0.000E+00  4.33936E+01  3.822E-01  2.000E+01  2.000E+04 -1.998E+00
   1   15   13     1    13    5.2494E+05 -3.9351E+04   5.6429E+05  0.000E+00  0.000E+00  0.000E+00  4.29340E+01  3.999E-01  2.000E+01  2.000E+04 -1.968E+00
   1   14   14     1    14    5.6429E+05 -4.0175E+04   6.0447E+05  0.000E+00  0.000E+00  0.000E+00  4.24740E+01  4.172E-01  2.000E+01  2.000E+04 -2.009E+00
   1   13   15     1    15    6.0447E+05 -4.2356E+04   6.4683E+05  0.000E+00  0.000E+00  0.000E+00  4.20142E+01  4.346E-01  2.000E+01  2.000E+04 -2.118E+00
   1   12   16     1    16    6.4683E+05 -4.8079E+04   6.9491E+05  0.000E+00  0.000E+00  0.000E+00  4.15555E+01  4.532E-01  2.000E+01  2.000E+04 -2.404E+00
   1   12   17     1    17    6.9491E+05 -3.7816E+04   7.3272E+05  0.000E+00  0.000E+00  0.000E+00  4.10954E+01  4.704E-01  2.000E+01  2.000E+04 -1.891E+00
   1   12   18     1    18    7.3272E+05 -3.6070E+04   7.6879E+05  0.000E+00  0.000E+00  0.000E+00  4.06326E+01  4.849E-01  2.000E+01  2.000E+04 -1.804E+00
   1   12   19     1    19    7.6879E+05 -4.0507E+04   8.0930E+05  0.000E+00  0.000E+00  0.000E+00  4.01700E+01  4.996E-01  2.000E+01  2.000E+04 -2.025E+00
   1   13   20     1    20    8.0930E+05 -3.0716E+04   8.4001E+05  0.000E+00  0.000E+00  0.000E+00  3.97062E+01  5.130E-01  2.000E+01  2.000E+04 -1.536E+00
   1   14   21     1    21    8.4001E+05 -2.3055E+04   8.6307E+05  0.000E+00  0.000E+00  0.000E+00  3.92388E+01  5.229E-01  2.000E+01  2.000E+04 -1.153E+00
   1   14   22     1    22    8.6307E+05 -2.9843E+03   8.6605E+05  0.000E+00  0.000E+00  0.000E+00  3.87664E+01  5.277E-01  2.000E+01  2.000E+04 -1.492E-01
   1    9   30     2     1    5.0000E+04 -2.9679E+04   7.9679E+04  0.000E+00  0.000E+00  0.000E+00  4.02604E+01  1.354E-01  2.000E+01  2.000E+04 -1.484E+00
   1    9   29     2     2    7.9679E+04 -3.2119E+04   1.1180E+05  0.000E+00  0.000E+00  0.000E+00  4.00461E+01  1.711E-01  2.000E+01  2.000E+04 -1.606E+00
   1    9   28     2     3    1.1180E+05 -3.6444E+04   1.4824E+05  0.000E+00  0.000E+00  0.000E+00  3.98306E+01  2.056E-01  2.000E+01  2.000E+04 -1.822E+00
   1    9   27     2     4    1.4824E+05 -5.1086E+04   1.9933E+05  0.000E+00  0.000E+00  0.000E+00  3.96197E+01  2.447E-01  2.000E+01  2.000E+04 -2.554E+00
   1   10   26     2     5    1.9933E+05 -3.7505E+04   2.3683E+05  0.000E+00  0.000E+00  0.000E+00  3.94054E+01  2.804E-01  2.000E+01  2.000E+04 -1.875E+00
   1   11   25     2     6    2.3683E+05 -2.9124E+04   2.6596E+05  0.000E+00  0.000E+00  0.000E+00  3.91803E+01  3.053E-01  2.000E+01  2.000E+04 -1.456E+00
   1   12   24     2     7    2.6596E+05 -2.2177E+04   2.8813E+05  0.000E+00  0.000E+00  0.000E+00  3.89487E+01  3.237E-01  2.000E+01  2.000E+04 -1.109E+00
   1   13   23     2     8    2.8813E+05 -1.6152E+04   3.0429E+05  0.000E+00  0.000E+00  0.000E+00  3.87119E+01  3.369E-01  2.000E+01  2.000E+04 -8.076E-01
   1   14   22     2     9    3.0429E+05 -8.9033E+03   3.1319E+05  0.000E+00  0.000E+00  0.000E+00  3.84704E+01  3.454E-01  2.000E+01  2.000E+04 -4.452E-01
   1   14   22     3     1    1.1792E+06 -1.6605E+04   1.1958E+06  0.000E+00  0.000E+00  0.000E+00  3.80853E+01  5.298E-01  2.000E+01  2.000E+04 -8.302E-01
   1   15   23     3     2    1.1958E+06 -2.6761E+04   1.2226E+06  0.000E+00  0.000E+00  0.000E+00  3.72022E+01  5.356E-01  2.000E+01  2.000E+04 -1.338E+00
   1   15   24     3     3    1.2226E+06 -2.2394E+04   1.2450E+06  0.000E+00  0.000E+00  0.000E+00  3.63198E+01  5.421E-01  2.000E+01  2.000E+04 -1.120E+00
   1   15   25     3     4    1.2450E+06 -2.2115E+04   1.2671E+06  0.000E+00  0.000E+00  0.000E+00  3.54368E+01  5.479E-01  2.000E+01  2.000E+04 -1.106E+00
   1   15   26     3     5    1.2671E+06 -2.5540E+04   1.2927E+06  0.000E+00  0.000E+00  0.000E+00  3.45541E+01  5.541E-01  2.000E+01  2.000E+04 -1.277E+00
   1   16   27     3     6    1.2927E+06 -3.3264E+04   1.3259E+06  0.000E+00  0.000E+00  0.000E+00  3.36728E+01  5.617E-01  2.000E+01  2.000E+04 -1.663E+00
   1   17   28     3     7    1.3259E+06 -4.0272E+04   1.3662E+06  0.000E+00  0.000E+00  0.000E+00  3.27934E+01  5.711E-01  2.000E+01  2.000E+04 -2.014E+00
   1   18   29     3     8    1.3662E+06 -5.0720E+04   1.4169E+06  0.000E+00  0.000E+00  0.000E+00  3.19160E+01  5.826E-01  2.000E+01  2.000E+04 -2.536E+00
   1   18   30     3     9    1.4169E+06 -4.6716E+04   1.4636E+06  0.000E+00  0.000E+00  0.000E+00  3.10392E+01  5.948E-01  2.000E+01  2.000E+04 -2.336E+00




 HEAD WILL BE SAVED ON UNIT   51 AT END OF TIME STEP    1, STRESS PERIOD    1
1
  VOLUMETRIC BUDGET FOR ENTIRE MODEL AT END OF TIME STEP    1, STRESS PERIOD   1
  ------------------------------------------------------------------------------

     CUMULATIVE VOLUMES      L**3       RATES FOR THIS TIME STEP      L**3/T
     ------------------                 ------------------------

           IN:                                      IN:
           ---                                      ---
             STORAGE =    18852266.0000               STORAGE =      204915.9375
       CONSTANT HEAD =   100731960.0000         CONSTANT HEAD =     1094912.6250
               WELLS =           0.0000                 WELLS =           0.0000
            RECHARGE =     1269600.0000              RECHARGE =       13800.0000
      STREAM LEAKAGE =           0.0000        STREAM LEAKAGE =           0.0000

            TOTAL IN =   120853824.0000              TOTAL IN =     1313628.5000

          OUT:                                     OUT:
          ----                                     ----
             STORAGE =           0.0000               STORAGE =           0.0000
       CONSTANT HEAD =           0.0000         CONSTANT HEAD =           0.0000
               WELLS =           0.0000                 WELLS =           0.0000
            RECHARGE =           0.0000              RECHARGE =           0.0000
      STREAM LEAKAGE =   120853984.0000        STREAM LEAKAGE =     1313630.2500

           TOTAL OUT =   120853984.0000             TOTAL OUT =     1313630.2500

            IN - OUT =        -160.0000              IN - OUT =          -1.7500

 PERCENT DISCREPANCY =          -0.00     PERCENT DISCREPANCY =          -0.00






         TIME SUMMARY AT END OF TIME STEP    1 IN STRESS PERIOD    1
                    SECONDS     MINUTES      HOURS       DAYS        YEARS
                    -----------------------------------------------------------
   TIME STEP LENGTH 7.94880E+06 1.32480E+05  2208.0      92.000     0.25188    
 STRESS PERIOD TIME 7.94880E+06 1.32480E+05  2208.0      92.000     0.25188    
         TOTAL TIME 7.94880E+06 1.32480E+05  2208.0      92.000     0.25188    
1
1
                            STRESS PERIOD NO.    2, LENGTH =   91.00000    
                            -----------------------------------------------

                              NUMBER OF TIME STEPS =     1

                               MULTIPLIER FOR DELT =     1.500

                            INITIAL TIME STEP SIZE =   91.00000    

 WELL NO.  LAYER   ROW   COL   STRESS RATE         
 --------------------------------------------------
      1      1      2      1       0.000    
      2      1      2      2       0.000    
      3      1      2      3       0.000    
      4      1      2      4       0.000    
      5      1      2      5       0.000    
      6      1      2      6       0.000    
      7      1      2      7       0.000    
      8      1      2      8       0.000    
      9      1      2      9       0.000    
     10      1      2     10       0.000    
     11      1      2     11       0.000    
     12      1      2     12       0.000    
     13      1      2     13       0.000    
     14      1      2     14       0.000    
     15      1      2     15       0.000    
     16      1      2     16       0.000    
     17      1      2     17       0.000    
     18      1      2     18       0.000    
     19      1      2     19       0.000    
     20      1      2     20       0.000    
     21      1      2     21       0.000    
     22      1      2     22       0.000    
     23      1      2     23       0.000    
     24      1      2     24       0.000    
     25      1      2     25       0.000    
     26      1      2     26       0.000    
     27      1      2     27       0.000    
     28      1      2     28       0.000    
     29      1      2     29       0.000    
     30      1      2     30       0.000    
     31      1      3      1       0.000    
     32      1      3      2       0.000    
     33      1      3      3       0.000    
     34      1      3      4       0.000    
     35      1      3      5       0.000    
     36      1      3      6       0.000    
     37      1      3      7       0.000    
     38      1      3      8       0.000    
     39      1      3      9       0.000    
     40      1      3     10       0.000    
     41      1      3     11       0.000    
     42      1      3     12       0.000    
     43      1      3     13       0.000    
     44      1      3     14       0.000    
     45      1      3     15       0.000    
     46      1      3     16       0.000    
     47      1      3     17       0.000    
     48      1      3     18       0.000    
     49      1      3     19       0.000    
     50      1      3     20       0.000    
     51      1      3     21       0.000    
     52      1      3     22       0.000    
     53      1      3     23       0.000    
     54      1      3     24       0.000    
     55      1      3     25       0.000    
     56      1      3     26       0.000    
     57      1      3     27       0.000    
     58      1      3     28       0.000    
     59      1      3     29       0.000    
     60      1      3     30       0.000    
     61      1      4      1       0.000    
     62      1      4      2       0.000    
     63      1      4      3       0.000    
     64      1      4      4       0.000    
     65      1      4      5       0.000    
     66      1      4      6       0.000    
     67      1      4      7       0.000    
     68      1      4      8       0.000    
     69      1      4      9       0.000    
     70      1      4     10       0.000    
     71      1      4     11       0.000    
     72      1      4     12       0.000    
     73      1      4     13       0.000    
     74      1      4     14       0.000    
     75      1      4     15       0.000    
     76      1      4     16       0.000    
     77      1      4     17       0.000    
     78      1      4     18       0.000    
     79      1      4     19       0.000    
     80      1      4     20       0.000    
     81      1      4     21       0.000    
     82      1      4     22       0.000    
     83      1      4     23       0.000    
     84      1      4     24       0.000    
     85      1      4     25       0.000    
     86      1      4     26       0.000    
     87      1      4     27       0.000    
     88      1      4     28       0.000    
     89      1      4     29       0.000    
     90      1      4     30       0.000    
     91      1      5      1       0.000    
     92      1      5      2       0.000    
     93      1      5      3       0.000    
     94      1      5      4       0.000    
     95      1      5      5       0.000    
     96      1      5      6       0.000    
     97      1      5      7       0.000    
     98      1      5      8       0.000    
     99      1      5      9       0.000    
    100      1      5     10       0.000    
    101      1      5     11       0.000    
    102      1      5     12       0.000    
    103      1      5     13       0.000    
    104      1      5     14       0.000    
    105      1      5     15       0.000    
    106      1      5     16       0.000    
    107      1      5     17       0.000    
    108      1      5     18       0.000    
    109      1      5     19       0.000    
    110      1      5     20       0.000    
    111      1      5     21       0.000    
    112      1      5     22       0.000    
    113      1      5     23       0.000    
    114      1      5     24       0.000    
    115      1      5     25       0.000    
    116      1      5     26       0.000    
    117      1      5     27       0.000    
    118      1      5     28       0.000    
    119      1      5     29       0.000    
    120      1      5     30       0.000    
    121      1      6      1       0.000    
    122      1      6      2       0.000    
    123      1      6      3       0.000    
    124      1      6      4       0.000    
    125      1      6      5       0.000    
    126      1      6      6       0.000    
    127      1      6      7       0.000    
    128      1      6      8       0.000    
    129      1      6      9       0.000    
    130      1      6     10       0.000    
    131      1      6     11       0.000    
    132      1      6     12       0.000    
    133      1      6     13       0.000    
    134      1      6     14       0.000    
    135      1      6     15       0.000    
    136      1      6     16       0.000    
    137      1      6     17       0.000    
    138      1      6     18       0.000    
    139      1      6     19       0.000    
    140      1      6     20       0.000    
    141      1      6     21       0.000    
    142      1      6     22       0.000    
    143      1      6     23       0.000    
    144      1      6     24       0.000    
    145      1      6     25       0.000    
    146      1      6     26       0.000    
    147      1      6     27       0.000    
    148      1      6     28       0.000    
    149      1      6     29       0.000    
    150      1      6     30       0.000    
    151      1      7      1       0.000    
    152      1      7      2       0.000    
    153      1      7      3       0.000    
    154      1      7      4       0.000    
    155      1      7      5       0.000    
    156      1      7      6       0.000    
    157      1      7      7       0.000    
    158      1      7      8       0.000    
    159      1      7      9       0.000    
    160      1      7     10       0.000    
    161      1      7     11       0.000    
    162      1      7     12       0.000    
    163      1      7     13       0.000    
    164      1      7     14       0.000    
    165      1      7     15       0.000    
    166      1      7     16       0.000    
    167      1      7     17       0.000    
    168      1      7     18       0.000    
    169      1      7     19       0.000    
    170      1      7     20       0.000    
    171      1      7     21       0.000    
    172      1      7     22       0.000    
    173      1      7     23       0.000    
    174      1      7     24       0.000    
    175      1      7     25       0.000    
    176      1      7     26       0.000    
    177      1      7     27       0.000    
    178      1      7     28       0.000    
    179      1      7     29       0.000    
    180      1      7     30       0.000    
    181      1      8      1       0.000    
    182      1      8      2       0.000    
    183      1      8      3       0.000    
    184      1      8      4       0.000    
    185      1      8      5       0.000    
    186      1      8      6       0.000    
    187      1      8      7       0.000    
    188      1      8      8       0.000    
    189      1      8      9       0.000    
    190      1      8     10       0.000    
    191      1      8     11       0.000    
    192      1      8     12       0.000    
    193      1      8     13       0.000    
    194      1      8     14       0.000    
    195      1      8     15       0.000    
    196      1      8     16       0.000    
    197      1      8     17       0.000    
    198      1      8     18       0.000    
    199      1      8     19       0.000    
    200      1      8     20       0.000    
    201      1      8     21       0.000    
    202      1      8     22       0.000    
    203      1      8     23       0.000    
    204      1      8     24       0.000    
    205      1      8     25       0.000    
    206      1      8     26       0.000    
    207      1      8     27       0.000    
    208      1      8     28       0.000    
    209      1      8     29       0.000    
    210      1      8     30       0.000    
    211      1      9      1       0.000    
    212      1      9      2       0.000    
    213      1      9      3       0.000    
    214      1      9      4       0.000    
    215      1      9      5       0.000    
    216      1      9      6       0.000    
    217      1      9      7       0.000    
    218      1      9      8       0.000    
    219      1      9      9       0.000    
    220      1      9     10       0.000    
    221      1      9     11       0.000    
    222      1      9     12       0.000    
    223      1      9     13       0.000    
    224      1      9     14       0.000    
    225      1      9     15       0.000    
    226      1      9     16       0.000    
    227      1      9     17       0.000    
    228      1      9     18       0.000    
    229      1      9     19       0.000    
    230      1      9     20       0.000    
    231      1      9     21       0.000    
    232      1      9     22       0.000    
    233      1      9     23       0.000    
    234      1      9     24       0.000    
    235      1      9     25       0.000    
    236      1      9     26       0.000    
    237      1      9     27       0.000    
    238      1      9     28       0.000    
    239      1      9     29       0.000    
    240      1      9     30       0.000    
    241      1     10      1       0.000    
    242      1     10      2       0.000    
    243      1     10      3       0.000    
    244      1     10      4       0.000    
    245      1     10      5       0.000    
    246      1     10      6       0.000    
    247      1     10      7       0.000    
    248      1     10      8       0.000    
    249      1     10      9       0.000    
    250      1     10     10       0.000    
    251      1     10     11       0.000    
    252      1     10     12       0.000    
    253      1     10     13       0.000    
    254      1     10     14       0.000    
    255      1     10     15       0.000    
    256      1     10     16       0.000    
    257      1     10     17       0.000    
    258      1     10     18       0.000    
    259      1     10     19       0.000    
    260      1     10     20       0.000    
    261      1     10     21       0.000    
    262      1     10     22       0.000    
    263      1     10     23       0.000    
    264      1     10     24       0.000    
    265      1     10     25       0.000    
    266      1     10     26       0.000    
    267      1     10     27       0.000    
    268      1     10     28       0.000    
    269      1     10     29       0.000    
    270      1     10     30       0.000    
    271      1     11      1       0.000    
    272      1     11      2       0.000    
    273      1     11      3       0.000    
    274      1     11      4       0.000    
    275      1     11      5       0.000    
    276      1     11      6       0.000    
    277      1     11      7       0.000    
    278      1     11      8       0.000    
    279      1     11      9       0.000    
    280      1     11     10       0.000    
    281      1     11     11       0.000    
    282      1     11     12       0.000    
    283      1     11     13       0.000    
    284      1     11     14       0.000    
    285      1     11     15       0.000    
    286      1     11     16       0.000    
    287      1     11     17       0.000    
    288      1     11     18       0.000    
    289      1     11     19       0.000    
    290      1     11     20       0.000    
    291      1     11     21       0.000    
    292      1     11     22       0.000    
    293      1     11     23       0.000    
    294      1     11     24       0.000    
    295      1     11     25       0.000    
    296      1     11     26       0.000    
    297      1     11     27       0.000    
    298      1     11     28       0.000    
    299      1     11     29       0.000    
    300      1     11     30       0.000    
    301      1     12      1       0.000    
    302      1     12      2       0.000    
    303      1     12      3       0.000    
    304      1     12      4       0.000    
    305      1     12      5       0.000    
    306      1     12      6       0.000    
    307      1     12      7       0.000    
    308      1     12      8       0.000    
    309      1     12      9       0.000    
    310      1     12     10       0.000    
    311      1     12     11       0.000    
    312      1     12     12       0.000    
    313      1     12     13       0.000    
    314      1     12     14       0.000    
    315      1     12     15       0.000    
    316      1     12     16       0.000    
    317      1     12     17       0.000    
    318      1     12     18       0.000    
    319      1     12     19       0.000    
    320      1     12     20       0.000    
    321      1     12     21       0.000    
    322      1     12     22       0.000    
    323      1     12     23       0.000    
    324      1     12     24       0.000    
    325      1     12     25       0.000    
    326      1     12     26       0.000    
    327      1     12     27       0.000    
    328      1     12     28       0.000    
    329      1     12     29       0.000    
    330      1     12     30       0.000    
    331      1     13      1       0.000    
    332      1     13      2       0.000    
    333      1     13      3       0.000    
    334      1     13      4       0.000    
    335      1     13      5       0.000    
    336      1     13      6       0.000    
    337      1     13      7       0.000    
    338      1     13      8       0.000    
    339      1     13      9       0.000    
    340      1     13     10       0.000    
    341      1     13     11       0.000    
    342      1     13     12       0.000    
    343      1     13     13       0.000    
    344      1     13     14       0.000    
    345      1     13     15       0.000    
    346      1     13     16       0.000    
    347      1     13     17       0.000    
    348      1     13     18       0.000    
    349      1     13     19       0.000    
    350      1     13     20       0.000    
    351      1     13     21       0.000    
    352      1     13     22       0.000    
    353      1     13     23       0.000    
    354      1     13     24       0.000    
    355      1     13     25       0.000    
    356      1     13     26       0.000    
    357      1     13     27       0.000    
    358      1     13     28       0.000    
    359      1     13     29       0.000    
    360      1     13     30       0.000    
    361      1     14      1       0.000    
    362      1     14      2       0.000    
    363      1     14      3       0.000    
    364      1     14      4       0.000    
    365      1     14      5       0.000    
    366      1     14      6       0.000    
    367      1     14      7       0.000    
    368      1     14      8       0.000    
    369      1     14      9       0.000    
    370      1     14     10       0.000    
    371      1     14     11       0.000    
    372      1     14     12       0.000    
    373      1     14     13       0.000    
    374      1     14     14       0.000    
    375      1     14     15       0.000    
    376      1     14     16       0.000    
    377      1     14     17       0.000    
    378      1     14     18       0.000    
    379      1     14     19       0.000    
    380      1     14     20       0.000    
    381      1     14     21       0.000    
    382      1     14     22       0.000    
    383      1     14     23       0.000    
    384      1     14     24       0.000    
    385      1     14     25       0.000    
    386      1     14     26       0.000    
    387      1     14     27       0.000    
    388      1     14     28       0.000    
    389      1     14     29       0.000    
    390      1     14     30       0.000    
    391      1     15      1       0.000    
    392      1     15      2       0.000    
    393      1     15      3       0.000    
    394      1     15      4       0.000    
    395      1     15      5       0.000    
    396      1     15      6       0.000    
    397      1     15      7       0.000    
    398      1     15      8       0.000    
    399      1     15      9       0.000    
    400      1     15     10       0.000    
    401      1     15     11       0.000    
    402      1     15     12       0.000    
    403      1     15     13       0.000    
    404      1     15     14       0.000    
    405      1     15     15       0.000    
    406      1     15     16       0.000    
    407      1     15     17       0.000    
    408      1     15     18       0.000    
    409      1     15     19       0.000    
    410      1     15     20       0.000    
    411      1     15     21       0.000    
    412      1     15     22       0.000    
    413      1     15     23       0.000    
    414      1     15     24       0.000    
    415      1     15     25       0.000    
    416      1     15     26       0.000    
    417      1     15     27       0.000    
    418      1     15     28       0.000    
    419      1     15     29       0.000    
    420      1     15     30       0.000    
    421      1     16      1       0.000    
    422      1     16      2       0.000    
    423      1     16      3       0.000    
    424      1     16      4       0.000    
    425      1     16      5       0.000    
    426      1     16      6       0.000    
    427      1     16      7       0.000    
    428      1     16      8       0.000    
    429      1     16      9       0.000    
    430      1     16     10       0.000    
    431      1     16     11       0.000    
    432      1     16     12       0.000    
    433      1     16     13       0.000    
    434      1     16     14       0.000    
    435      1     16     15       0.000    
    436      1     16     16       0.000    
    437      1     16     17       0.000    
    438      1     16     18       0.000    
    439      1     16     19       0.000    
    440      1     16     20       0.000    
    441      1     16     21       0.000    
    442      1     16     22       0.000    
    443      1     16     23       0.000    
    444      1     16     24       0.000    
    445      1     16     25       0.000    
    446      1     16     26       0.000    
    447      1     16     27       0.000    
    448      1     16     28       0.000    
    449      1     16     29       0.000    
    450      1     16     30       0.000    
    451      1     17      1       0.000    
    452      1     17      2       0.000    
    453      1     17      3       0.000    
    454      1     17      4       0.000    
    455      1     17      5       0.000    
    456      1     17      6       0.000    
    457      1     17      7       0.000    
    458      1     17      8       0.000    
    459      1     17      9       0.000    
    460      1     17     10       0.000    
    461      1     17     11       0.000    
    462      1     17     12       0.000    
    463      1     17     13       0.000    
    464      1     17     14       0.000    
    465      1     17     15       0.000    
    466      1     17     16       0.000    
    467      1     17     17       0.000    
    468      1     17     18       0.000    
    469      1     17     19       0.000    
    470      1     17     20       0.000    
    471      1     17     21       0.000    
    472      1     17     22       0.000    
    473      1     17     23       0.000    
    474      1     17     24       0.000    
    475      1     17     25       0.000    
    476      1     17     26       0.000    
    477      1     17     27       0.000    
    478      1     17     28       0.000    
    479      1     17     29       0.000    
    480      1     17     30       0.000    
    481      1     18      1       0.000    
    482      1     18      2       0.000    
    483      1     18      3       0.000    
    484      1     18      4       0.000    
    485      1     18      5       0.000    
    486      1     18      6       0.000    
    487      1     18      7       0.000    
    488      1     18      8       0.000    
    489      1     18      9       0.000    
    490      1     18     10       0.000    
    491      1     18     11       0.000    
    492      1     18     12       0.000    
    493      1     18     13       0.000    
    494      1     18     14       0.000    
    495      1     18     15       0.000    
    496      1     18     16       0.000    
    497      1     18     17       0.000    
    498      1     18     18       0.000    
    499      1     18     19       0.000    
    500      1     18     20       0.000    
    501      1     18     21       0.000    
    502      1     18     22       0.000    
    503      1     18     23       0.000    
    504      1     18     24       0.000    
    505      1     18     25       0.000    
    506      1     18     26       0.000    
    507      1     18     27       0.000    
    508      1     18     28       0.000    
    509      1     18     29       0.000    
    510      1     18     30       0.000    
    511      1     19      1       0.000    
    512      1     19      2       0.000    
    513      1     19      3       0.000    
    514      1     19      4       0.000    
    515      1     19      5       0.000    
    516      1     19      6       0.000    
    517      1     19      7       0.000    
    518      1     19      8       0.000    
    519      1     19      9       0.000    
    520      1     19     10       0.000    
    521      1     19     11       0.000    
    522      1     19     12       0.000    
    523      1     19     13       0.000    
    524      1     19     14       0.000    
    525      1     19     15       0.000    
    526      1     19     16       0.000    
    527      1     19     17       0.000    
    528      1     19     18       0.000    
    529      1     19     19       0.000    
    530      1     19     20       0.000    
    531      1     19     21       0.000    
    532      1     19     22       0.000    
    533      1     19     23       0.000    
    534      1     19     24       0.000    
    535      1     19     25       0.000    
    536      1     19     26       0.000    
    537      1     19     27       0.000    
    538      1     19     28       0.000    
    539      1     19     29       0.000    
    540      1     19     30       0.000    
    541      1     20      1       0.000    
    542      1     20      2       0.000    
    543      1     20      3       0.000    
    544      1     20      4       0.000    
    545      1     20      5       0.000    
    546      1     20      6       0.000    
    547      1     20      7       0.000    
    548      1     20      8       0.000    
    549      1     20      9       0.000    
    550      1     20     10       0.000    
    551      1     20     11       0.000    
    552      1     20     12       0.000    
    553      1     20     13       0.000    
    554      1     20     14       0.000    
    555      1     20     15       0.000    
    556      1     20     16       0.000    
    557      1     20     17       0.000    
    558      1     20     18       0.000    
    559      1     20     19       0.000    
    560      1     20     20       0.000    
    561      1     20     21       0.000    
    562      1     20     22       0.000    
    563      1     20     23       0.000    
    564      1     20     24       0.000    
    565      1     20     25       0.000    
    566      1     20     26       0.000    
    567      1     20     27       0.000    
    568      1     20     28       0.000    
    569      1     20     29       0.000    
    570      1     20     30       0.000    
    571      1     21      1       0.000    
    572      1     21      2       0.000    
    573      1     21      3       0.000    
    574      1     21      4       0.000    
    575      1     21      5       0.000    
    576      1     21      6       0.000    
    577      1     21      7       0.000    
    578      1     21      8       0.000    
    579      1     21      9       0.000    
    580      1     21     10       0.000    
    581      1     21     11       0.000    
    582      1     21     12       0.000    
    583      1     21     13       0.000    
    584      1     21     14       0.000    
    585      1     21     15       0.000    
    586      1     21     16       0.000    
    587      1     21     17       0.000    
    588      1     21     18       0.000    
    589      1     21     19       0.000    
    590      1     21     20       0.000    
    591      1     21     21       0.000    
    592      1     21     22       0.000    
    593      1     21     23       0.000    
    594      1     21     24       0.000    
    595      1     21     25       0.000    
    596      1     21     26       0.000    
    597      1     21     27       0.000    
    598      1     21     28       0.000    
    599      1     21     29       0.000    
    600      1     21     30       0.000    
    601      1     22      1       0.000    
    602      1     22      2       0.000    
    603      1     22      3       0.000    
    604      1     22      4       0.000    
    605      1     22      5       0.000    
    606      1     22      6       0.000    
    607      1     22      7       0.000    
    608      1     22      8       0.000    
    609      1     22      9       0.000    
    610      1     22     10       0.000    
    611      1     22     11       0.000    
    612      1     22     12       0.000    
    613      1     22     13       0.000    
    614      1     22     14       0.000    
    615      1     22     15       0.000    
    616      1     22     16       0.000    
    617      1     22     17       0.000    
    618      1     22     18       0.000    
    619      1     22     19       0.000    
    620      1     22     20       0.000    
    621      1     22     21       0.000    
    622      1     22     22       0.000    
    623      1     22     23       0.000    
    624      1     22     24       0.000    
    625      1     22     25       0.000    
    626      1     22     26       0.000    
    627      1     22     27       0.000    
    628      1     22     28       0.000    
    629      1     22     29       0.000    
    630      1     22     30       0.000    
    631      1     23      1       0.000    
    632      1     23      2       0.000    
    633      1     23      3       0.000    
    634      1     23      4       0.000    
    635      1     23      5       0.000    
    636      1     23      6       0.000    
    637      1     23      7       0.000    
    638      1     23      8       0.000    
    639      1     23      9       0.000    
    640      1     23     10       0.000    
    641      1     23     11       0.000    
    642      1     23     12       0.000    
    643      1     23     13       0.000    
    644      1     23     14       0.000    
    645      1     23     15       0.000    
    646      1     23     16       0.000    
    647      1     23     17       0.000    
    648      1     23     18       0.000    
    649      1     23     19       0.000    
    650      1     23     20       0.000    
    651      1     23     21       0.000    
    652      1     23     22       0.000    
    653      1     23     23       0.000    
    654      1     23     24       0.000    
    655      1     23     25       0.000    
    656      1     23     26       0.000    
    657      1     23     27       0.000    
    658      1     23     28       0.000    
    659      1     23     29       0.000    
    660      1     23     30       0.000    
    661      1     24      1       0.000    
    662      1     24      2       0.000    
    663      1     24      3       0.000    
    664      1     24      4       0.000    
    665      1     24      5       0.000    
    666      1     24      6       0.000    
    667      1     24      7       0.000    
    668      1     24      8       0.000    
    669      1     24      9       0.000    
    670      1     24     10       0.000    
    671      1     24     11       0.000    
    672      1     24     12       0.000    
    673      1     24     13       0.000    
    674      1     24     14       0.000    
    675      1     24     15       0.000    
    676      1     24     16       0.000    
    677      1     24     17       0.000    
    678      1     24     18       0.000    
    679      1     24     19       0.000    
    680      1     24     20       0.000    
    681      1     24     21       0.000    
    682      1     24     22       0.000    
    683      1     24     23       0.000    
    684      1     24     24       0.000    
    685      1     24     25       0.000    
    686      1     24     26       0.000    
    687      1     24     27       0.000    
    688      1     24     28       0.000    
    689      1     24     29       0.000    
    690      1     24     30       0.000    

    690 WELLS

                 RECHARGE =  2.000000E-03

 REUSING STREAM SEGMENT DATA FROM LAST STRESS PERIOD

 SOLVING FOR HEAD 


     6 CALLS TO PCG ROUTINE FOR TIME STEP   1 IN STRESS PERIOD    2
    22 TOTAL ITERATIONS

 OUTPUT CONTROL FOR STRESS PERIOD    2   TIME STEP    1
    SAVE HEAD FOR ALL LAYERS
    SAVE BUDGET



 STREAM LISTING     PERIOD      2   STEP        1

 LAYER ROW COL. STREAM  RCH.  FLOW INTO     FLOW TO   FLOW OUT OF   OVRLND.     DIRECT     STREAM       STREAM     STREAM     STREAM   STREAMBED  STREAMBED
                SEG.NO.  NO.  STRM. RCH.    AQUIFER    STRM. RCH.    RUNOFF     PRECIP       ET          HEAD       DEPTH      WIDTH   CONDCTNC.   GRADIENT

   1   13    1     1     1    1.0000E+05 -2.8563E+04   1.2856E+05  0.000E+00  0.000E+00  0.000E+00  4.84181E+01  1.567E-01  2.000E+01  2.000E+04 -1.428E+00
   1   13    2     1     2    1.2856E+05 -3.8462E+04   1.6702E+05  0.000E+00  0.000E+00  0.000E+00  4.79670E+01  1.829E-01  2.000E+01  2.000E+04 -1.923E+00
   1   14    3     1     3    1.6702E+05 -3.3901E+04   2.0093E+05  0.000E+00  0.000E+00  0.000E+00  4.75154E+01  2.085E-01  2.000E+01  2.000E+04 -1.695E+00
   1   15    4     1     4    2.0093E+05 -3.3092E+04   2.3402E+05  0.000E+00  0.000E+00  0.000E+00  4.70601E+01  2.306E-01  2.000E+01  2.000E+04 -1.655E+00
   1   16    5     1     5    2.3402E+05 -3.4520E+04   2.6854E+05  0.000E+00  0.000E+00  0.000E+00  4.66037E+01  2.514E-01  2.000E+01  2.000E+04 -1.726E+00
   1   16    6     1     6    2.6854E+05 -3.0174E+04   2.9871E+05  0.000E+00  0.000E+00  0.000E+00  4.61454E+01  2.704E-01  2.000E+01  2.000E+04 -1.509E+00
   1   16    7     1     7    2.9871E+05 -3.0005E+04   3.2872E+05  0.000E+00  0.000E+00  0.000E+00  4.56850E+01  2.872E-01  2.000E+01  2.000E+04 -1.500E+00
   1   16    8     1     8    3.2872E+05 -3.0206E+04   3.5892E+05  0.000E+00  0.000E+00  0.000E+00  4.52239E+01  3.035E-01  2.000E+01  2.000E+04 -1.510E+00
   1   16    9     1     9    3.5892E+05 -3.0304E+04   3.8923E+05  0.000E+00  0.000E+00  0.000E+00  4.47624E+01  3.192E-01  2.000E+01  2.000E+04 -1.515E+00
   1   16   10     1    10    3.8923E+05 -3.0351E+04   4.1958E+05  0.000E+00  0.000E+00  0.000E+00  4.43004E+01  3.345E-01  2.000E+01  2.000E+04 -1.518E+00
   1   16   11     1    11    4.1958E+05 -3.0990E+04   4.5057E+05  0.000E+00  0.000E+00  0.000E+00  4.38381E+01  3.495E-01  2.000E+01  2.000E+04 -1.550E+00
   1   16   12     1    12    4.5057E+05 -3.6661E+04   4.8723E+05  0.000E+00  0.000E+00  0.000E+00  4.33769E+01  3.656E-01  2.000E+01  2.000E+04 -1.833E+00
   1   15   13     1    13    4.8723E+05 -3.5505E+04   5.2273E+05  0.000E+00  0.000E+00  0.000E+00  4.29163E+01  3.822E-01  2.000E+01  2.000E+04 -1.775E+00
   1   14   14     1    14    5.2273E+05 -3.6134E+04   5.5887E+05  0.000E+00  0.000E+00  0.000E+00  4.24551E+01  3.982E-01  2.000E+01  2.000E+04 -1.807E+00
   1   13   15     1    15    5.5887E+05 -3.8352E+04   5.9722E+05  0.000E+00  0.000E+00  0.000E+00  4.19940E+01  4.145E-01  2.000E+01  2.000E+04 -1.918E+00
   1   12   16     1    16    5.9722E+05 -4.4362E+04   6.4158E+05  0.000E+00  0.000E+00  0.000E+00  4.15343E+01  4.320E-01  2.000E+01  2.000E+04 -2.218E+00
   1   12   17     1    17    6.4158E+05 -3.4723E+04   6.7631E+05  0.000E+00  0.000E+00  0.000E+00  4.10734E+01  4.484E-01  2.000E+01  2.000E+04 -1.736E+00
   1   12   18     1    18    6.7631E+05 -3.3070E+04   7.0938E+05  0.000E+00  0.000E+00  0.000E+00  4.06098E+01  4.621E-01  2.000E+01  2.000E+04 -1.654E+00
   1   12   19     1    19    7.0938E+05 -3.7206E+04   7.4658E+05  0.000E+00  0.000E+00  0.000E+00  4.01464E+01  4.760E-01  2.000E+01  2.000E+04 -1.860E+00
   1   13   20     1    20    7.4658E+05 -2.7469E+04   7.7405E+05  0.000E+00  0.000E+00  0.000E+00  3.96817E+01  4.886E-01  2.000E+01  2.000E+04 -1.373E+00
   1   14   21     1    21    7.7405E+05 -2.0303E+04   7.9435E+05  0.000E+00  0.000E+00  0.000E+00  3.92136E+01  4.977E-01  2.000E+01  2.000E+04 -1.015E+00
   1   14   22     1    22    7.9435E+05 -1.9394E+03   7.9629E+05  0.000E+00  0.000E+00  0.000E+00  3.87406E+01  5.019E-01  2.000E+01  2.000E+04 -9.697E-02
   1    9   30     2     1    5.0000E+04 -2.7026E+04   7.7026E+04  0.000E+00  0.000E+00  0.000E+00  4.02588E+01  1.337E-01  2.000E+01  2.000E+04 -1.351E+00
   1    9   29     2     2    7.7026E+04 -2.9495E+04   1.0652E+05  0.000E+00  0.000E+00  0.000E+00  4.00418E+01  1.668E-01  2.000E+01  2.000E+04 -1.475E+00
   1    9   28     2     3    1.0652E+05 -3.3804E+04   1.4033E+05  0.000E+00  0.000E+00  0.000E+00  3.98243E+01  1.993E-01  2.000E+01  2.000E+04 -1.690E+00
   1    9   27     2     4    1.4033E+05 -4.8054E+04   1.8838E+05  0.000E+00  0.000E+00  0.000E+00  3.96116E+01  2.366E-01  2.000E+01  2.000E+04 -2.403E+00
   1   10   26     2     5    1.8838E+05 -3.4063E+04   2.2244E+05  0.000E+00  0.000E+00  0.000E+00  3.93955E+01  2.705E-01  2.000E+01  2.000E+04 -1.703E+00
   1   11   25     2     6    2.2244E+05 -2.5705E+04   2.4815E+05  0.000E+00  0.000E+00  0.000E+00  3.91685E+01  2.935E-01  2.000E+01  2.000E+04 -1.285E+00
   1   12   24     2     7    2.4815E+05 -1.9081E+04   2.6723E+05  0.000E+00  0.000E+00  0.000E+00  3.89349E+01  3.099E-01  2.000E+01  2.000E+04 -9.541E-01
   1   13   23     2     8    2.6723E+05 -1.3638E+04   2.8087E+05  0.000E+00  0.000E+00  0.000E+00  3.86966E+01  3.216E-01  2.000E+01  2.000E+04 -6.819E-01
   1   14   22     2     9    2.8087E+05 -7.6707E+03   2.8854E+05  0.000E+00  0.000E+00  0.000E+00  3.84540E+01  3.290E-01  2.000E+01  2.000E+04 -3.835E-01
   1   14   22     3     1    1.0848E+06 -1.5561E+04   1.1004E+06  0.000E+00  0.000E+00  0.000E+00  3.80595E+01  5.039E-01  2.000E+01  2.000E+04 -7.780E-01
   1   15   23     3     2    1.1004E+06 -2.4232E+04   1.1246E+06  0.000E+00  0.000E+00  0.000E+00  3.71761E+01  5.094E-01  2.000E+01  2.000E+04 -1.212E+00
   1   15   24     3     3    1.1246E+06 -2.0156E+04   1.1448E+06  0.000E+00  0.000E+00  0.000E+00  3.62933E+01  5.155E-01  2.000E+01  2.000E+04 -1.008E+00
   1   15   25     3     4    1.1448E+06 -1.9742E+04   1.1645E+06  0.000E+00  0.000E+00  0.000E+00  3.54098E+01  5.209E-01  2.000E+01  2.000E+04 -9.871E-01
   1   15   26     3     5    1.1645E+06 -2.2560E+04   1.1871E+06  0.000E+00  0.000E+00  0.000E+00  3.45266E+01  5.266E-01  2.000E+01  2.000E+04 -1.128E+00
   1   16   27     3     6    1.1871E+06 -2.9838E+04   1.2169E+06  0.000E+00  0.000E+00  0.000E+00  3.36447E+01  5.336E-01  2.000E+01  2.000E+04 -1.492E+00
   1   17   28     3     7    1.2169E+06 -3.6911E+04   1.2538E+06  0.000E+00  0.000E+00  0.000E+00  3.27647E+01  5.425E-01  2.000E+01  2.000E+04 -1.846E+00
   1   18   29     3     8    1.2538E+06 -4.7863E+04   1.3017E+06  0.000E+00  0.000E+00  0.000E+00  3.18869E+01  5.536E-01  2.000E+01  2.000E+04 -2.393E+00
   1   18   30     3     9    1.3017E+06 -4.4190E+04   1.3459E+06  0.000E+00  0.000E+00  0.000E+00  3.10099E+01  5.654E-01  2.000E+01  2.000E+04 -2.210E+00




 HEAD WILL BE SAVED ON UNIT   51 AT END OF TIME STEP    1, STRESS PERIOD    2
1
  VOLUMETRIC BUDGET FOR ENTIRE MODEL AT END OF TIME STEP    1, STRESS PERIOD   2
  ------------------------------------------------------------------------------

     CUMULATIVE VOLUMES      L**3       RATES FOR THIS TIME STEP      L**3/T
     ------------------                 ------------------------

           IN:                                      IN:
           ---                                      ---
             STORAGE =    19515660.0000               STORAGE =        7290.0327
       CONSTANT HEAD =   203870944.0000         CONSTANT HEAD =     1133395.3750
               WELLS =           0.0000                 WELLS =           0.0000
            RECHARGE =     6292800.0000              RECHARGE =       55200.0000
      STREAM LEAKAGE =           0.0000        STREAM LEAKAGE =           0.0000

            TOTAL IN =   229679408.0000              TOTAL IN =     1195885.3750

          OUT:                                     OUT:
          ----                                     ----
             STORAGE =           0.0000               STORAGE =           0.0000
       CONSTANT HEAD =           0.0000         CONSTANT HEAD =           0.0000
               WELLS =           0.0000                 WELLS =           0.0000
            RECHARGE =           0.0000              RECHARGE =           0.0000
      STREAM LEAKAGE =   229679504.0000        STREAM LEAKAGE =     1195884.8750

           TOTAL OUT =   229679504.0000             TOTAL OUT =     1195884.8750

            IN - OUT =         -96.0000              IN - OUT =           0.5000

 PERCENT DISCREPANCY =          -0.00     PERCENT DISCREPANCY =           0.00






         TIME SUMMARY AT END OF TIME STEP    1 IN STRESS PERIOD    2
                    SECONDS     MINUTES      HOURS       DAYS        YEARS
                    -----------------------------------------------------------
   TIME STEP LENGTH 7.86240E+06 1.31040E+05  2184.0      91.000     0.24914    
 STRESS PERIOD TIME 7.86240E+06 1.31040E+05  2184.0      91.000     0.24914    
         TOTAL TIME 1.58112E+07 2.63520E+05  4392.0      183.00     0.50103    
1
1
                            STRESS PERIOD NO.    3, LENGTH =   91.00000    
                            -----------------------------------------------

                              NUMBER OF TIME STEPS =     1

                               MULTIPLIER FOR DELT =     1.500

                            INITIAL TIME STEP SIZE =   91.00000    

 WELL NO.  LAYER   ROW   COL   STRESS RATE         
 --------------------------------------------------
      1      1      2      1       0.000    
      2      1      2      2       0.000    
      3      1      2      3       0.000    
      4      1      2      4       0.000    
      5      1      2      5       0.000    
      6      1      2      6       0.000    
      7      1      2      7       0.000    
      8      1      2      8       0.000    
      9      1      2      9       0.000    
     10      1      2     10       0.000    
     11      1      2     11       0.000    
     12      1      2     12       0.000    
     13      1      2     13       0.000    
     14      1      2     14       0.000    
     15      1      2     15       0.000    
     16      1      2     16       0.000    
     17      1      2     17       0.000    
     18      1      2     18       0.000    
     19      1      2     19       0.000    
     20      1      2     20       0.000    
     21      1      2     21       0.000    
     22      1      2     22       0.000    
     23      1      2     23       0.000    
     24      1      2     24       0.000    
     25      1      2     25       0.000    
     26      1      2     26       0.000    
     27      1      2     27       0.000    
     28      1      2     28       0.000    
     29      1      2     29       0.000    
     30      1      2     30       0.000    
     31      1      3      1       0.000    
     32      1      3      2       0.000    
     33      1      3      3       0.000    
     34      1      3      4       0.000    
     35      1      3      5       0.000    
     36      1      3      6       0.000    
     37      1      3      7       0.000    
     38      1      3      8       0.000    
     39      1      3      9       0.000    
     40      1      3     10       0.000    
     41      1      3     11       0.000    
     42      1      3     12       0.000    
     43      1      3     13       0.000    
     44      1      3     14       0.000    
     45      1      3     15       0.000    
     46      1      3     16       0.000    
     47      1      3     17       0.000    
     48      1      3     18       0.000    
     49      1      3     19       0.000    
     50      1      3     20       0.000    
     51      1      3     21       0.000    
     52      1      3     22       0.000    
     53      1      3     23       0.000    
     54      1      3     24       0.000    
     55      1      3     25       0.000    
     56      1      3     26       0.000    
     57      1      3     27       0.000    
     58      1      3     28       0.000    
     59      1      3     29       0.000    
     60      1      3     30       0.000    
     61      1      4      1       0.000    
     62      1      4      2       0.000    
     63      1      4      3       0.000    
     64      1      4      4       0.000    
     65      1      4      5       0.000    
     66      1      4      6       0.000    
     67      1      4      7       0.000    
     68      1      4      8       0.000    
     69      1      4      9       0.000    
     70      1      4     10       0.000    
     71      1      4     11       0.000    
     72      1      4     12       0.000    
     73      1      4     13       0.000    
     74      1      4     14       0.000    
     75      1      4     15       0.000    
     76      1      4     16       0.000    
     77      1      4     17       0.000    
     78      1      4     18       0.000    
     79      1      4     19       0.000    
     80      1      4     20       0.000    
     81      1      4     21       0.000    
     82      1      4     22       0.000    
     83      1      4     23       0.000    
     84      1      4     24       0.000    
     85      1      4     25       0.000    
     86      1      4     26       0.000    
     87      1      4     27       0.000    
     88      1      4     28       0.000    
     89      1      4     29       0.000    
     90      1      4     30       0.000    
     91      1      5      1       0.000    
     92      1      5      2       0.000    
     93      1      5      3       0.000    
     94      1      5      4       0.000    
     95      1      5      5       0.000    
     96      1      5      6       0.000    
     97      1      5      7       0.000    
     98      1      5      8       0.000    
     99      1      5      9       0.000    
    100      1      5     10       0.000    
    101      1      5     11       0.000    
    102      1      5     12       0.000    
    103      1      5     13       0.000    
    104      1      5     14       0.000    
    105      1      5     15       0.000    
    106      1      5     16       0.000    
    107      1      5     17       0.000    
    108      1      5     18       0.000    
    109      1      5     19       0.000    
    110      1      5     20       0.000    
    111      1      5     21       0.000    
    112      1      5     22       0.000    
    113      1      5     23       0.000    
    114      1      5     24       0.000    
    115      1      5     25       0.000    
    116      1      5     26       0.000    
    117      1      5     27       0.000    
    118      1      5     28       0.000    
    119      1      5     29       0.000    
    120      1      5     30       0.000    
    121      1      6      1       0.000    
    122      1      6      2       0.000    
    123      1      6      3       0.000    
    124      1      6      4       0.000    
    125      1      6      5       0.000    
    126      1      6      6       0.000    
    127      1      6      7       0.000    
    128      1      6      8       0.000    
    129      1      6      9       0.000    
    130      1      6     10       0.000    
    131      1      6     11       0.000    
    132      1      6     12       0.000    
    133      1      6     13       0.000    
    134      1      6     14       0.000    
    135      1      6     15       0.000    
    136      1      6     16       0.000    
    137      1      6     17       0.000    
    138      1      6     18       0.000    
    139      1      6     19       0.000    
    140      1      6     20       0.000    
    141      1      6     21       0.000    
    142      1      6     22       0.000    
    143      1      6     23       0.000    
    144      1      6     24       0.000    
    145      1      6     25       0.000    
    146      1      6     26       0.000    
    147      1      6     27       0.000    
    148      1      6     28       0.000    
    149      1      6     29       0.000    
    150      1      6     30       0.000    
    151      1      7      1       0.000    
    152      1      7      2       0.000    
    153      1      7      3       0.000    
    154      1      7      4       0.000    
    155      1      7      5       0.000    
    156      1      7      6       0.000    
    157      1      7      7       0.000    
    158      1      7      8       0.000    
    159      1      7      9       0.000    
    160      1      7     10       0.000    
    161      1      7     11       0.000    
    162      1      7     12       0.000    
    163      1      7     13       0.000    
    164      1      7     14       0.000    
    165      1      7     15       0.000    
    166      1      7     16       0.000    
    167      1      7     17       0.000    
    168      1      7     18       0.000    
    169      1      7     19       0.000    
    170      1      7     20       0.000    
    171      1      7     21       0.000    
    172      1      7     22       0.000    
    173      1      7     23       0.000    
    174      1      7     24       0.000    
    175      1      7     25       0.000    
    176      1      7     26       0.000    
    177      1      7     27       0.000    
    178      1      7     28       0.000    
    179      1      7     29       0.000    
    180      1      7     30       0.000    
    181      1      8      1       0.000    
    182      1      8      2       0.000    
    183      1      8      3       0.000    
    184      1      8      4       0.000    
    185      1      8      5       0.000    
    186      1      8      6       0.000    
    187      1      8      7       0.000    
    188      1      8      8       0.000    
    189      1      8      9       0.000    
    190      1      8     10       0.000    
    191      1      8     11       0.000    
    192      1      8     12       0.000    
    193      1      8     13       0.000    
    194      1      8     14       0.000    
    195      1      8     15       0.000    
    196      1      8     16       0.000    
    197      1      8     17       0.000    
    198      1      8     18       0.000    
    199      1      8     19       0.000    
    200      1      8     20       0.000    
    201      1      8     21       0.000    
    202      1      8     22       0.000    
    203      1      8     23       0.000    
    204      1      8     24       0.000    
    205      1      8     25       0.000    
    206      1      8     26       0.000    
    207      1      8     27       0.000    
    208      1      8     28       0.000    
    209      1      8     29       0.000    
    210      1      8     30       0.000    
    211      1      9      1       0.000    
    212      1      9      2       0.000    
    213      1      9      3       0.000    
    214      1      9      4       0.000    
    215      1      9      5       0.000    
    216      1      9      6       0.000    
    217      1      9      7       0.000    
    218      1      9      8       0.000    
    219      1      9      9       0.000    
    220      1      9     10       0.000    
    221      1      9     11       0.000    
    222      1      9     12       0.000    
    223      1      9     13       0.000    
    224      1      9     14       0.000    
    225      1      9     15       0.000    
    226      1      9     16       0.000    
    227      1      9     17       0.000    
    228      1      9     18       0.000    
    229      1      9     19       0.000    
    230      1      9     20       0.000    
    231      1      9     21       0.000    
    232      1      9     22       0.000    
    233      1      9     23       0.000    
    234      1      9     24       0.000    
    235      1      9     25       0.000    
    236      1      9     26       0.000    
    237      1      9     27       0.000    
    238      1      9     28       0.000    
    239      1      9     29       0.000    
    240      1      9     30       0.000    
    241      1     10      1       0.000    
    242      1     10      2       0.000    
    243      1     10      3       0.000    
    244      1     10      4       0.000    
    245      1     10      5       0.000    
    246      1     10      6       0.000    
    247      1     10      7       0.000    
    248      1     10      8       0.000    
    249      1     10      9       0.000    
    250      1     10     10       0.000    
    251      1     10     11       0.000    
    252      1     10     12       0.000    
    253      1     10     13       0.000    
    254      1     10     14       0.000    
    255      1     10     15       0.000    
    256      1     10     16       0.000    
    257      1     10     17       0.000    
    258      1     10     18       0.000    
    259      1     10     19       0.000    
    260      1     10     20       0.000    
    261      1     10     21       0.000    
    262      1     10     22       0.000    
    263      1     10     23       0.000    
    264      1     10     24       0.000    
    265      1     10     25       0.000    
    266      1     10     26       0.000    
    267      1     10     27       0.000    
    268      1     10     28       0.000    
    269      1     10     29       0.000    
    270      1     10     30       0.000    
    271      1     11      1       0.000    
    272      1     11      2       0.000    
    273      1     11      3       0.000    
    274      1     11      4       0.000    
    275      1     11      5       0.000    
    276      1     11      6       0.000    
    277      1     11      7       0.000    
    278      1     11      8       0.000    
    279      1     11      9       0.000    
    280      1     11     10       0.000    
    281      1     11     11       0.000    
    282      1     11     12       0.000    
    283      1     11     13       0.000    
    284      1     11     14       0.000    
    285      1     11     15       0.000    
    286      1     11     16       0.000    
    287      1     11     17       0.000    
    288      1     11     18       0.000    
    289      1     11     19       0.000    
    290      1     11     20       0.000    
    291      1     11     21       0.000    
    292      1     11     22       0.000    
    293      1     11     23       0.000    
    294      1     11     24       0.000    
    295      1     11     25       0.000    
    296      1     11     26       0.000    
    297      1     11     27       0.000    
    298      1     11     28       0.000    
    299      1     11     29       0.000    
    300      1     11     30       0.000    
    301      1     12      1       0.000    
    302      1     12      2       0.000    
    303      1     12      3       0.000    
    304      1     12      4       0.000    
    305      1     12      5       0.000    
    306      1     12      6       0.000    
    307      1     12      7       0.000    
    308      1     12      8       0.000    
    309      1     12      9       0.000    
    310      1     12     10       0.000    
    311      1     12     11       0.000    
    312      1     12     12       0.000    
    313      1     12     13       0.000    
    314      1     12     14       0.000    
    315      1     12     15       0.000    
    316      1     12     16       0.000    
    317      1     12     17       0.000    
    318      1     12     18       0.000    
    319      1     12     19       0.000    
    320      1     12     20       0.000    
    321      1     12     21       0.000    
    322      1     12     22       0.000    
    323      1     12     23       0.000    
    324      1     12     24       0.000    
    325      1     12     25       0.000    
    326      1     12     26       0.000    
    327      1     12     27       0.000    
    328      1     12     28       0.000    
    329      1     12     29       0.000    
    330      1     12     30       0.000    
    331      1     13      1       0.000    
    332      1     13      2       0.000    
    333      1     13      3       0.000    
    334      1     13      4       0.000    
    335      1     13      5       0.000    
    336      1     13      6       0.000    
    337      1     13      7       0.000    
    338      1     13      8       0.000    
    339      1     13      9       0.000    
    340      1     13     10       0.000    
    341      1     13     11       0.000    
    342      1     13     12       0.000    
    343      1     13     13       0.000    
    344      1     13     14       0.000    
    345      1     13     15       0.000    
    346      1     13     16       0.000    
    347      1     13     17       0.000    
    348      1     13     18       0.000    
    349      1     13     19       0.000    
    350      1     13     20       0.000    
    351      1     13     21       0.000    
    352      1     13     22       0.000    
    353      1     13     23       0.000    
    354      1     13     24       0.000    
    355      1     13     25       0.000    
    356      1     13     26       0.000    
    357      1     13     27       0.000    
    358      1     13     28       0.000    
    359      1     13     29       0.000    
    360      1     13     30       0.000    
    361      1     14      1       0.000    
    362      1     14      2       0.000    
    363      1     14      3       0.000    
    364      1     14      4       0.000    
    365      1     14      5       0.000    
    366      1     14      6       0.000    
    367      1     14      7       0.000    
    368      1     14      8       0.000    
    369      1     14      9       0.000    
    370      1     14     10       0.000    
    371      1     14     11       0.000    
    372      1     14     12       0.000    
    373      1     14     13       0.000    
    374      1     14     14       0.000    
    375      1     14     15       0.000    
    376      1     14     16       0.000    
    377      1     14     17       0.000    
    378      1     14     18       0.000    
    379      1     14     19       0.000    
    380      1     14     20       0.000    
    381      1     14     21       0.000    
    382      1     14     22       0.000    
    383      1     14     23       0.000    
    384      1     14     24       0.000    
    385      1     14     25       0.000    
    386      1     14     26       0.000    
    387      1     14     27       0.000    
    388      1     14     28       0.000    
    389      1     14     29       0.000    
    390      1     14     30       0.000    
    391      1     15      1       0.000    
    392      1     15      2       0.000    
    393      1     15      3       0.000    
    394      1     15      4       0.000    
    395      1     15      5       0.000    
    396      1     15      6       0.000    
    397      1     15      7       0.000    
    398      1     15      8       0.000    
    399      1     15      9       0.000    
    400      1     15     10       0.000    
    401      1     15     11       0.000    
    402      1     15     12       0.000    
    403      1     15     13       0.000    
    404      1     15     14       0.000    
    405      1     15     15       0.000    
    406      1     15     16       0.000    
    407      1     15     17       0.000    
    408      1     15     18       0.000    
    409      1     15     19       0.000    
    410      1     15     20       0.000    
    411      1     15     21       0.000    
    412      1     15     22       0.000    
    413      1     15     23       0.000    
    414      1     15     24       0.000    
    415      1     15     25       0.000    
    416      1     15     26       0.000    
    417      1     15     27       0.000    
    418      1     15     28       0.000    
    419      1     15     29       0.000    
    420      1     15     30       0.000    
    421      1     16      1       0.000    
    422      1     16      2       0.000    
    423      1     16      3       0.000    
    424      1     16      4       0.000    
    425      1     16      5       0.000    
    426      1     16      6       0.000    
    427      1     16      7       0.000    
    428      1     16      8       0.000    
    429      1     16      9       0.000    
    430      1     16     10       0.000    
    431      1     16     11       0.000    
    432      1     16     12       0.000    
    433      1     16     13       0.000    
    434      1     16     14       0.000    
    435      1     16     15       0.000    
    436      1     16     16       0.000    
    437      1     16     17       0.000    
    438      1     16     18       0.000    
    439      1     16     19       0.000    
    440      1     16     20       0.000    
    441      1     16     21       0.000    
    442      1     16     22       0.000    
    443      1     16     23       0.000    
    444      1     16     24       0.000    
    445      1     16     25       0.000    
    446      1     16     26       0.000    
    447      1     16     27       0.000    
    448      1     16     28       0.000    
    449      1     16     29       0.000    
    450      1     16     30       0.000    
    451      1     17      1       0.000    
    452      1     17      2       0.000    
    453      1     17      3       0.000    
    454      1     17      4       0.000    
    455      1     17      5       0.000    
    456      1     17      6       0.000    
    457      1     17      7       0.000    
    458      1     17      8       0.000    
    459      1     17      9       0.000    
    460      1     17     10       0.000    
    461      1     17     11       0.000    
    462      1     17     12       0.000    
    463      1     17     13       0.000    
    464      1     17     14       0.000    
    465      1     17     15       0.000    
    466      1     17     16       0.000    
    467      1     17     17       0.000    
    468      1     17     18       0.000    
    469      1     17     19       0.000    
    470      1     17     20       0.000    
    471      1     17     21       0.000    
    472      1     17     22       0.000    
    473      1     17     23       0.000    
    474      1     17     24       0.000    
    475      1     17     25       0.000    
    476      1     17     26       0.000    
    477      1     17     27       0.000    
    478      1     17     28       0.000    
    479      1     17     29       0.000    
    480      1     17     30       0.000    
    481      1     18      1       0.000    
    482      1     18      2       0.000    
    483      1     18      3       0.000    
    484      1     18      4       0.000    
    485      1     18      5       0.000    
    486      1     18      6       0.000    
    487      1     18      7       0.000    
    488      1     18      8       0.000    
    489      1     18      9       0.000    
    490      1     18     10       0.000    
    491      1     18     11       0.000    
    492      1     18     12       0.000    
    493      1     18     13       0.000    
    494      1     18     14       0.000    
    495      1     18     15       0.000    
    496      1     18     16       0.000    
    497      1     18     17       0.000    
    498      1     18     18       0.000    
    499      1     18     19       0.000    
    500      1     18     20       0.000    
    501      1     18     21       0.000    
    502      1     18     22       0.000    
    503      1     18     23       0.000    
    504      1     18     24       0.000    
    505      1     18     25       0.000    
    506      1     18     26       0.000    
    507      1     18     27       0.000    
    508      1     18     28       0.000    
    509      1     18     29       0.000    
    510      1     18     30       0.000    
    511      1     19      1       0.000    
    512      1     19      2       0.000    
    513      1     19      3       0.000    
    514      1     19      4       0.000    
    515      1     19      5       0.000    
    516      1     19      6       0.000    
    517      1     19      7       0.000    
    518      1     19      8       0.000    
    519      1     19      9       0.000    
    520      1     19     10       0.000    
    521      1     19     11       0.000    
    522      1     19     12       0.000    
    523      1     19     13       0.000    
    524      1     19     14       0.000    
    525      1     19     15       0.000    
    526      1     19     16       0.000    
    527      1     19     17       0.000    
    528      1     19     18       0.000    
    529      1     19     19       0.000    
    530      1     19     20       0.000    
    531      1     19     21       0.000    
    532      1     19     22       0.000    
    533      1     19     23       0.000    
    534      1     19     24       0.000    
    535      1     19     25       0.000    
    536      1     19     26       0.000    
    537      1     19     27       0.000    
    538      1     19     28       0.000    
    539      1     19     29       0.000    
    540      1     19     30       0.000    
    541      1     20      1       0.000    
    542      1     20      2       0.000    
    543      1     20      3       0.000    
    544      1     20      4       0.000    
    545      1     20      5       0.000    
    546      1     20      6       0.000    
    547      1     20      7       0.000    
    548      1     20      8       0.000    
    549      1     20      9       0.000    
    550      1     20     10       0.000    
    551      1     20     11       0.000    
    552      1     20     12       0.000    
    553      1     20     13       0.000    
    554      1     20     14       0.000    
    555      1     20     15       0.000    
    556      1     20     16       0.000    
    557      1     20     17       0.000    
    558      1     20     18       0.000    
    559      1     20     19       0.000    
    560      1     20     20       0.000    
    561      1     20     21       0.000    
    562      1     20     22       0.000    
    563      1     20     23       0.000    
    564      1     20     24       0.000    
    565      1     20     25       0.000    
    566      1     20     26       0.000    
    567      1     20     27       0.000    
    568      1     20     28       0.000    
    569      1     20     29       0.000    
    570      1     20     30       0.000    
    571      1     21      1       0.000    
    572      1     21      2       0.000    
    573      1     21      3       0.000    
    574      1     21      4       0.000    
    575      1     21      5       0.000    
    576      1     21      6       0.000    
    577      1     21      7       0.000    
    578      1     21      8       0.000    
    579      1     21      9       0.000    
    580      1     21     10       0.000    
    581      1     21     11       0.000    
    582      1     21     12       0.000    
    583      1     21     13       0.000    
    584      1     21     14       0.000    
    585      1     21     15       0.000    
    586      1     21     16       0.000    
    587      1     21     17       0.000    
    588      1     21     18       0.000    
    589      1     21     19       0.000    
    590      1     21     20       0.000    
    591      1     21     21       0.000    
    592      1     21     22       0.000    
    593      1     21     23       0.000    
    594      1     21     24       0.000    
    595      1     21     25       0.000    
    596      1     21     26       0.000    
    597      1     21     27       0.000    
    598      1     21     28       0.000    
    599      1     21     29       0.000    
    600      1     21     30       0.000    
    601      1     22      1       0.000    
    602      1     22      2       0.000    
    603      1     22      3       0.000    
    604      1     22      4       0.000    
    605      1     22      5       0.000    
    606      1     22      6       0.000    
    607      1     22      7       0.000    
    608      1     22      8       0.000    
    609      1     22      9       0.000    
    610      1     22     10       0.000    
    611      1     22     11       0.000    
    612      1     22     12       0.000    
    613      1     22     13       0.000    
    614      1     22     14       0.000    
    615      1     22     15       0.000    
    616      1     22     16       0.000    
    617      1     22     17       0.000    
    618      1     22     18       0.000    
    619      1     22     19       0.000    
    620      1     22     20       0.000    
    621      1     22     21       0.000    
    622      1     22     22       0.000    
    623      1     22     23       0.000    
    624      1     22     24       0.000    
    625      1     22     25       0.000    
    626      1     22     26       0.000    
    627      1     22     27       0.000    
    628      1     22     28       0.000    
    629      1     22     29       0.000    
    630      1     22     30       0.000    
    631      1     23      1       0.000    
    632      1     23      2       0.000    
    633      1     23      3       0.000    
    634      1     23      4       0.000    
    635      1     23      5       0.000    
    636      1     23      6       0.000    
    637      1     23      7       0.000    
    638      1     23      8       0.000    
    639      1     23      9       0.000    
    640      1     23     10       0.000    
    641      1     23     11       0.000    
    642      1     23     12       0.000    
    643      1     23     13       0.000    
    644      1     23     14       0.000    
    645      1     23     15       0.000    
    646      1     23     16       0.000    
    647      1     23     17       0.000    
    648      1     23     18       0.000    
    649      1     23     19       0.000    
    650      1     23     20       0.000    
    651      1     23     21       0.000    
    652      1     23     22       0.000    
    653      1     23     23       0.000    
    654      1     23     24       0.000    
    655      1     23     25       0.000    
    656      1     23     26       0.000    
    657      1     23     27       0.000    
    658      1     23     28       0.000    
    659      1     23     29       0.000    
    660      1     23     30       0.000    
    661      1     24      1       0.000    
    662      1     24      2       0.000    
    663      1     24      3       0.000    
    664      1     24      4       0.000    
    665      1     24      5       0.000    
    666      1     24      6       0.000    
    667      1     24      7       0.000    
    668      1     24      8       0.000    
    669      1     24      9       0.000    
    670      1     24     10       0.000    
    671      1     24     11       0.000    
    672      1     24     12       0.000    
    673      1     24     13       0.000    
    674      1     24     14       0.000    
    675      1     24     15       0.000    
    676      1     24     16       0.000    
    677      1     24     17       0.000    
    678      1     24     18       0.000    
    679      1     24     19       0.000    
    680      1     24     20       0.000    
    681      1     24     21       0.000    
    682      1     24     22       0.000    
    683      1     24     23       0.000    
    684      1     24     24       0.000    
    685      1     24     25       0.000    
    686      1     24     26       0.000    
    687      1     24     27       0.000    
    688      1     24     28       0.000    
    689      1     24     29       0.000    
    690      1     24     30       0.000    

    690 WELLS

                 RECHARGE =   0.00000    

 REUSING STREAM SEGMENT DATA FROM LAST STRESS PERIOD

 SOLVING FOR HEAD 


     5 CALLS TO PCG ROUTINE FOR TIME STEP   1 IN STRESS PERIOD    3
    19 TOTAL ITERATIONS

 OUTPUT CONTROL FOR STRESS PERIOD    3   TIME STEP    1
    SAVE HEAD FOR ALL LAYERS
    SAVE BUDGET



 STREAM LISTING     PERIOD      3   STEP        1

 LAYER ROW COL. STREAM  RCH.  FLOW INTO     FLOW TO   FLOW OUT OF   OVRLND.     DIRECT     STREAM       STREAM     STREAM     STREAM   STREAMBED  STREAMBED
                SEG.NO.  NO.  STRM. RCH.    AQUIFER    STRM. RCH.    RUNOFF     PRECIP       ET          HEAD       DEPTH      WIDTH   CONDCTNC.   GRADIENT

   1   13    1     1     1    1.0000E+05 -2.7532E+04   1.2753E+05  0.000E+00  0.000E+00  0.000E+00  4.84177E+01  1.563E-01  2.000E+01  2.000E+04 -1.377E+00
   1   13    2     1     2    1.2753E+05 -3.7222E+04   1.6475E+05  0.000E+00  0.000E+00  0.000E+00  4.79657E+01  1.816E-01  2.000E+01  2.000E+04 -1.861E+00
   1   14    3     1     3    1.6475E+05 -3.2702E+04   1.9746E+05  0.000E+00  0.000E+00  0.000E+00  4.75134E+01  2.066E-01  2.000E+01  2.000E+04 -1.635E+00
   1   15    4     1     4    1.9746E+05 -3.1950E+04   2.2941E+05  0.000E+00  0.000E+00  0.000E+00  4.70575E+01  2.280E-01  2.000E+01  2.000E+04 -1.598E+00
   1   16    5     1     5    2.2941E+05 -3.3502E+04   2.6291E+05  0.000E+00  0.000E+00  0.000E+00  4.66006E+01  2.483E-01  2.000E+01  2.000E+04 -1.675E+00
   1   16    6     1     6    2.6291E+05 -2.9285E+04   2.9219E+05  0.000E+00  0.000E+00  0.000E+00  4.61419E+01  2.669E-01  2.000E+01  2.000E+04 -1.464E+00
   1   16    7     1     7    2.9219E+05 -2.9122E+04   3.2131E+05  0.000E+00  0.000E+00  0.000E+00  4.56811E+01  2.834E-01  2.000E+01  2.000E+04 -1.456E+00
   1   16    8     1     8    3.2131E+05 -2.9319E+04   3.5063E+05  0.000E+00  0.000E+00  0.000E+00  4.52198E+01  2.993E-01  2.000E+01  2.000E+04 -1.466E+00
   1   16    9     1     9    3.5063E+05 -2.9418E+04   3.8005E+05  0.000E+00  0.000E+00  0.000E+00  4.47579E+01  3.147E-01  2.000E+01  2.000E+04 -1.471E+00
   1   16   10     1    10    3.8005E+05 -2.9468E+04   4.0952E+05  0.000E+00  0.000E+00  0.000E+00  4.42956E+01  3.297E-01  2.000E+01  2.000E+04 -1.473E+00
   1   16   11     1    11    4.0952E+05 -3.0097E+04   4.3962E+05  0.000E+00  0.000E+00  0.000E+00  4.38331E+01  3.444E-01  2.000E+01  2.000E+04 -1.505E+00
   1   16   12     1    12    4.3962E+05 -3.5621E+04   4.7524E+05  0.000E+00  0.000E+00  0.000E+00  4.33715E+01  3.602E-01  2.000E+01  2.000E+04 -1.781E+00
   1   15   13     1    13    4.7524E+05 -3.4344E+04   5.0958E+05  0.000E+00  0.000E+00  0.000E+00  4.29106E+01  3.765E-01  2.000E+01  2.000E+04 -1.717E+00
   1   14   14     1    14    5.0958E+05 -3.4928E+04   5.4451E+05  0.000E+00  0.000E+00  0.000E+00  4.24489E+01  3.921E-01  2.000E+01  2.000E+04 -1.746E+00
   1   13   15     1    15    5.4451E+05 -3.7153E+04   5.8166E+05  0.000E+00  0.000E+00  0.000E+00  4.19876E+01  4.080E-01  2.000E+01  2.000E+04 -1.858E+00
   1   12   16     1    16    5.8166E+05 -4.3200E+04   6.2486E+05  0.000E+00  0.000E+00  0.000E+00  4.15275E+01  4.252E-01  2.000E+01  2.000E+04 -2.160E+00
   1   12   17     1    17    6.2486E+05 -3.3798E+04   6.5866E+05  0.000E+00  0.000E+00  0.000E+00  4.10663E+01  4.413E-01  2.000E+01  2.000E+04 -1.690E+00
   1   12   18     1    18    6.5866E+05 -3.2191E+04   6.9085E+05  0.000E+00  0.000E+00  0.000E+00  4.06025E+01  4.548E-01  2.000E+01  2.000E+04 -1.610E+00
   1   12   19     1    19    6.9085E+05 -3.6250E+04   7.2710E+05  0.000E+00  0.000E+00  0.000E+00  4.01390E+01  4.685E-01  2.000E+01  2.000E+04 -1.812E+00
   1   13   20     1    20    7.2710E+05 -2.6583E+04   7.5368E+05  0.000E+00  0.000E+00  0.000E+00  3.96740E+01  4.808E-01  2.000E+01  2.000E+04 -1.329E+00
   1   14   21     1    21    7.5368E+05 -1.9543E+04   7.7323E+05  0.000E+00  0.000E+00  0.000E+00  3.92057E+01  4.898E-01  2.000E+01  2.000E+04 -9.772E-01
   1   14   22     1    22    7.7323E+05 -1.6775E+03   7.7490E+05  0.000E+00  0.000E+00  0.000E+00  3.87325E+01  4.938E-01  2.000E+01  2.000E+04 -8.388E-02
   1    9   30     2     1    5.0000E+04 -2.6359E+04   7.6359E+04  0.000E+00  0.000E+00  0.000E+00  4.02583E+01  1.333E-01  2.000E+01  2.000E+04 -1.318E+00
   1    9   29     2     2    7.6359E+04 -2.8827E+04   1.0519E+05  0.000E+00  0.000E+00  0.000E+00  4.00407E+01  1.657E-01  2.000E+01  2.000E+04 -1.441E+00
   1    9   28     2     3    1.0519E+05 -3.3112E+04   1.3830E+05  0.000E+00  0.000E+00  0.000E+00  3.98226E+01  1.976E-01  2.000E+01  2.000E+04 -1.656E+00
   1    9   27     2     4    1.3830E+05 -4.7201E+04   1.8550E+05  0.000E+00  0.000E+00  0.000E+00  3.96095E+01  2.345E-01  2.000E+01  2.000E+04 -2.360E+00
   1   10   26     2     5    1.8550E+05 -3.3174E+04   2.1867E+05  0.000E+00  0.000E+00  0.000E+00  3.93929E+01  2.679E-01  2.000E+01  2.000E+04 -1.659E+00
   1   11   25     2     6    2.1867E+05 -2.4847E+04   2.4352E+05  0.000E+00  0.000E+00  0.000E+00  3.91653E+01  2.903E-01  2.000E+01  2.000E+04 -1.242E+00
   1   12   24     2     7    2.4352E+05 -1.8316E+04   2.6184E+05  0.000E+00  0.000E+00  0.000E+00  3.89313E+01  3.063E-01  2.000E+01  2.000E+04 -9.158E-01
   1   13   23     2     8    2.6184E+05 -1.3019E+04   2.7486E+05  0.000E+00  0.000E+00  0.000E+00  3.86925E+01  3.175E-01  2.000E+01  2.000E+04 -6.510E-01
   1   14   22     2     9    2.7486E+05 -7.3331E+03   2.8219E+05  0.000E+00  0.000E+00  0.000E+00  3.84497E+01  3.247E-01  2.000E+01  2.000E+04 -3.667E-01
   1   14   22     3     1    1.0571E+06 -1.5292E+04   1.0724E+06  0.000E+00  0.000E+00  0.000E+00  3.80517E+01  4.962E-01  2.000E+01  2.000E+04 -7.646E-01
   1   15   23     3     2    1.0724E+06 -2.3531E+04   1.0959E+06  0.000E+00  0.000E+00  0.000E+00  3.71683E+01  5.016E-01  2.000E+01  2.000E+04 -1.177E+00
   1   15   24     3     3    1.0959E+06 -1.9582E+04   1.1155E+06  0.000E+00  0.000E+00  0.000E+00  3.62853E+01  5.076E-01  2.000E+01  2.000E+04 -9.791E-01
   1   15   25     3     4    1.1155E+06 -1.9173E+04   1.1347E+06  0.000E+00  0.000E+00  0.000E+00  3.54018E+01  5.129E-01  2.000E+01  2.000E+04 -9.586E-01
   1   15   26     3     5    1.1347E+06 -2.1895E+04   1.1566E+06  0.000E+00  0.000E+00  0.000E+00  3.45185E+01  5.185E-01  2.000E+01  2.000E+04 -1.095E+00
   1   16   27     3     6    1.1566E+06 -2.9033E+04   1.1856E+06  0.000E+00  0.000E+00  0.000E+00  3.36365E+01  5.254E-01  2.000E+01  2.000E+04 -1.452E+00
   1   17   28     3     7    1.1856E+06 -3.6088E+04   1.2217E+06  0.000E+00  0.000E+00  0.000E+00  3.27563E+01  5.341E-01  2.000E+01  2.000E+04 -1.804E+00
   1   18   29     3     8    1.2217E+06 -4.7095E+04   1.2688E+06  0.000E+00  0.000E+00  0.000E+00  3.18784E+01  5.451E-01  2.000E+01  2.000E+04 -2.355E+00
   1   18   30     3     9    1.2688E+06 -4.3552E+04   1.3123E+06  0.000E+00  0.000E+00  0.000E+00  3.10013E+01  5.569E-01  2.000E+01  2.000E+04 -2.178E+00




 HEAD WILL BE SAVED ON UNIT   51 AT END OF TIME STEP    1, STRESS PERIOD    3
1
  VOLUMETRIC BUDGET FOR ENTIRE MODEL AT END OF TIME STEP    1, STRESS PERIOD   3
  ------------------------------------------------------------------------------

     CUMULATIVE VOLUMES      L**3       RATES FOR THIS TIME STEP      L**3/T
     ------------------                 ------------------------

           IN:                                      IN:
           ---                                      ---
             STORAGE =    19792494.0000               STORAGE =        3042.1348
       CONSTANT HEAD =   309366624.0000         CONSTANT HEAD =     1159293.1250
               WELLS =           0.0000                 WELLS =           0.0000
            RECHARGE =     6292800.0000              RECHARGE =           0.0000
      STREAM LEAKAGE =           0.0000        STREAM LEAKAGE =           0.0000

            TOTAL IN =   335451904.0000              TOTAL IN =     1162335.2500

          OUT:                                     OUT:
          ----                                     ----
             STORAGE =           0.0000               STORAGE =           0.0000
       CONSTANT HEAD =           0.0000         CONSTANT HEAD =           0.0000
               WELLS =           0.0000                 WELLS =           0.0000
            RECHARGE =           0.0000              RECHARGE =           0.0000
      STREAM LEAKAGE =   335451968.0000        STREAM LEAKAGE =     1162334.8750

           TOTAL OUT =   335451968.0000             TOTAL OUT =     1162334.8750

            IN - OUT =         -64.0000              IN - OUT =           0.3750

 PERCENT DISCREPANCY =          -0.00     PERCENT DISCREPANCY =           0.00






         TIME SUMMARY AT END OF TIME STEP    1 IN STRESS PERIOD    3
                    SECONDS     MINUTES      HOURS       DAYS        YEARS
                    -----------------------------------------------------------
   TIME STEP LENGTH 7.86240E+06 1.31040E+05  2184.0      91.000     0.24914    
 STRESS PERIOD TIME 7.86240E+06 1.31040E+05  2184.0      91.000     0.24914    
         TOTAL TIME 2.36736E+07 3.94560E+05  6576.0      274.00     0.75017    
1
1
                            STRESS PERIOD NO.    4, LENGTH =   91.00000    
                            -----------------------------------------------

                              NUMBER OF TIME STEPS =     1

                               MULTIPLIER FOR DELT =     1.500

                            INITIAL TIME STEP SIZE =   91.00000    

 WELL NO.  LAYER   ROW   COL   STRESS RATE         
 --------------------------------------------------
      1      1      2      1       0.000    
      2      1      2      2       0.000    
      3      1      2      3       0.000    
      4      1      2      4       0.000    
      5      1      2      5       0.000    
      6      1      2      6       0.000    
      7      1      2      7       0.000    
      8      1      2      8       0.000    
      9      1      2      9       0.000    
     10      1      2     10       0.000    
     11      1      2     11       0.000    
     12      1      2     12       0.000    
     13      1      2     13       0.000    
     14      1      2     14       0.000    
     15      1      2     15       0.000    
     16      1      2     16       0.000    
     17      1      2     17       0.000    
     18      1      2     18       0.000    
     19      1      2     19       0.000    
     20      1      2     20       0.000    
     21      1      2     21       0.000    
     22      1      2     22       0.000    
     23      1      2     23       0.000    
     24      1      2     24       0.000    
     25      1      2     25       0.000    
     26      1      2     26       0.000    
     27      1      2     27       0.000    
     28      1      2     28       0.000    
     29      1      2     29       0.000    
     30      1      2     30       0.000    
     31      1      3      1       0.000    
     32      1      3      2       0.000    
     33      1      3      3       0.000    
     34      1      3      4       0.000    
     35      1      3      5       0.000    
     36      1      3      6       0.000    
     37      1      3      7       0.000    
     38      1      3      8       0.000    
     39      1      3      9       0.000    
     40      1      3     10       0.000    
     41      1      3     11       0.000    
     42      1      3     12       0.000    
     43      1      3     13       0.000    
     44      1      3     14       0.000    
     45      1      3     15       0.000    
     46      1      3     16       0.000    
     47      1      3     17       0.000    
     48      1      3     18       0.000    
     49      1      3     19       0.000    
     50      1      3     20       0.000    
     51      1      3     21       0.000    
     52      1      3     22       0.000    
     53      1      3     23       0.000    
     54      1      3     24       0.000    
     55      1      3     25       0.000    
     56      1      3     26       0.000    
     57      1      3     27       0.000    
     58      1      3     28       0.000    
     59      1      3     29       0.000    
     60      1      3     30       0.000    
     61      1      4      1       0.000    
     62      1      4      2       0.000    
     63      1      4      3       0.000    
     64      1      4      4       0.000    
     65      1      4      5       0.000    
     66      1      4      6       0.000    
     67      1      4      7       0.000    
     68      1      4      8       0.000    
     69      1      4      9       0.000    
     70      1      4     10       0.000    
     71      1      4     11       0.000    
     72      1      4     12       0.000    
     73      1      4     13       0.000    
     74      1      4     14       0.000    
     75      1      4     15       0.000    
     76      1      4     16       0.000    
     77      1      4     17       0.000    
     78      1      4     18       0.000    
     79      1      4     19       0.000    
     80      1      4     20       0.000    
     81      1      4     21       0.000    
     82      1      4     22       0.000    
     83      1      4     23       0.000    
     84      1      4     24       0.000    
     85      1      4     25       0.000    
     86      1      4     26       0.000    
     87      1      4     27       0.000    
     88      1      4     28       0.000    
     89      1      4     29       0.000    
     90      1      4     30       0.000    
     91      1      5      1       0.000    
     92      1      5      2       0.000    
     93      1      5      3       0.000    
     94      1      5      4       0.000    
     95      1      5      5       0.000    
     96      1      5      6       0.000    
     97      1      5      7       0.000    
     98      1      5      8       0.000    
     99      1      5      9       0.000    
    100      1      5     10       0.000    
    101      1      5     11       0.000    
    102      1      5     12       0.000    
    103      1      5     13       0.000    
    104      1      5     14       0.000    
    105      1      5     15       0.000    
    106      1      5     16       0.000    
    107      1      5     17       0.000    
    108      1      5     18       0.000    
    109      1      5     19       0.000    
    110      1      5     20       0.000    
    111      1      5     21       0.000    
    112      1      5     22       0.000    
    113      1      5     23       0.000    
    114      1      5     24       0.000    
    115      1      5     25       0.000    
    116      1      5     26       0.000    
    117      1      5     27       0.000    
    118      1      5     28       0.000    
    119      1      5     29       0.000    
    120      1      5     30       0.000    
    121      1      6      1       0.000    
    122      1      6      2       0.000    
    123      1      6      3       0.000    
    124      1      6      4       0.000    
    125      1      6      5       0.000    
    126      1      6      6       0.000    
    127      1      6      7       0.000    
    128      1      6      8       0.000    
    129      1      6      9       0.000    
    130      1      6     10       0.000    
    131      1      6     11       0.000    
    132      1      6     12       0.000    
    133      1      6     13       0.000    
    134      1      6     14       0.000    
    135      1      6     15       0.000    
    136      1      6     16       0.000    
    137      1      6     17       0.000    
    138      1      6     18       0.000    
    139      1      6     19       0.000    
    140      1      6     20       0.000    
    141      1      6     21       0.000    
    142      1      6     22       0.000    
    143      1      6     23       0.000    
    144      1      6     24       0.000    
    145      1      6     25       0.000    
    146      1      6     26       0.000    
    147      1      6     27       0.000    
    148      1      6     28       0.000    
    149      1      6     29       0.000    
    150      1      6     30       0.000    
    151      1      7      1       0.000    
    152      1      7      2       0.000    
    153      1      7      3       0.000    
    154      1      7      4       0.000    
    155      1      7      5       0.000    
    156      1      7      6       0.000    
    157      1      7      7       0.000    
    158      1      7      8       0.000    
    159      1      7      9       0.000    
    160      1      7     10       0.000    
    161      1      7     11       0.000    
    162      1      7     12       0.000    
    163      1      7     13       0.000    
    164      1      7     14       0.000    
    165      1      7     15       0.000    
    166      1      7     16       0.000    
    167      1      7     17       0.000    
    168      1      7     18       0.000    
    169      1      7     19       0.000    
    170      1      7     20       0.000    
    171      1      7     21       0.000    
    172      1      7     22       0.000    
    173      1      7     23       0.000    
    174      1      7     24       0.000    
    175      1      7     25       0.000    
    176      1      7     26       0.000    
    177      1      7     27       0.000    
    178      1      7     28       0.000    
    179      1      7     29       0.000    
    180      1      7     30       0.000    
    181      1      8      1       0.000    
    182      1      8      2       0.000    
    183      1      8      3       0.000    
    184      1      8      4       0.000    
    185      1      8      5       0.000    
    186      1      8      6       0.000    
    187      1      8      7       0.000    
    188      1      8      8       0.000    
    189      1      8      9       0.000    
    190      1      8     10       0.000    
    191      1      8     11       0.000    
    192      1      8     12       0.000    
    193      1      8     13       0.000    
    194      1      8     14       0.000    
    195      1      8     15       0.000    
    196      1      8     16       0.000    
    197      1      8     17       0.000    
    198      1      8     18       0.000    
    199      1      8     19       0.000    
    200      1      8     20       0.000    
    201      1      8     21       0.000    
    202      1      8     22       0.000    
    203      1      8     23       0.000    
    204      1      8     24       0.000    
    205      1      8     25       0.000    
    206      1      8     26       0.000    
    207      1      8     27       0.000    
    208      1      8     28       0.000    
    209      1      8     29       0.000    
    210      1      8     30       0.000    
    211      1      9      1       0.000    
    212      1      9      2       0.000    
    213      1      9      3       0.000    
    214      1      9      4       0.000    
    215      1      9      5       0.000    
    216      1      9      6       0.000    
    217      1      9      7       0.000    
    218      1      9      8       0.000    
    219      1      9      9       0.000    
    220      1      9     10       0.000    
    221      1      9     11       0.000    
    222      1      9     12       0.000    
    223      1      9     13       0.000    
    224      1      9     14       0.000    
    225      1      9     15       0.000    
    226      1      9     16       0.000    
    227      1      9     17       0.000    
    228      1      9     18       0.000    
    229      1      9     19       0.000    
    230      1      9     20       0.000    
    231      1      9     21       0.000    
    232      1      9     22       0.000    
    233      1      9     23       0.000    
    234      1      9     24       0.000    
    235      1      9     25       0.000    
    236      1      9     26       0.000    
    237      1      9     27       0.000    
    238      1      9     28       0.000    
    239      1      9     29       0.000    
    240      1      9     30       0.000    
    241      1     10      1       0.000    
    242      1     10      2       0.000    
    243      1     10      3       0.000    
    244      1     10      4       0.000    
    245      1     10      5       0.000    
    246      1     10      6       0.000    
    247      1     10      7       0.000    
    248      1     10      8       0.000    
    249      1     10      9       0.000    
    250      1     10     10       0.000    
    251      1     10     11       0.000    
    252      1     10     12       0.000    
    253      1     10     13       0.000    
    254      1     10     14       0.000    
    255      1     10     15       0.000    
    256      1     10     16       0.000    
    257      1     10     17       0.000    
    258      1     10     18       0.000    
    259      1     10     19       0.000    
    260      1     10     20       0.000    
    261      1     10     21       0.000    
    262      1     10     22       0.000    
    263      1     10     23       0.000    
    264      1     10     24       0.000    
    265      1     10     25       0.000    
    266      1     10     26       0.000    
    267      1     10     27       0.000    
    268      1     10     28       0.000    
    269      1     10     29       0.000    
    270      1     10     30       0.000    
    271      1     11      1       0.000    
    272      1     11      2       0.000    
    273      1     11      3       0.000    
    274      1     11      4       0.000    
    275      1     11      5       0.000    
    276      1     11      6       0.000    
    277      1     11      7       0.000    
    278      1     11      8       0.000    
    279      1     11      9       0.000    
    280      1     11     10       0.000    
    281      1     11     11       0.000    
    282      1     11     12       0.000    
    283      1     11     13       0.000    
    284      1     11     14       0.000    
    285      1     11     15       0.000    
    286      1     11     16       0.000    
    287      1     11     17       0.000    
    288      1     11     18       0.000    
    289      1     11     19       0.000    
    290      1     11     20       0.000    
    291      1     11     21       0.000    
    292      1     11     22       0.000    
    293      1     11     23       0.000    
    294      1     11     24       0.000    
    295      1     11     25       0.000    
    296      1     11     26       0.000    
    297      1     11     27       0.000    
    298      1     11     28       0.000    
    299      1     11     29       0.000    
    300      1     11     30       0.000    
    301      1     12      1       0.000    
    302      1     12      2       0.000    
    303      1     12      3       0.000    
    304      1     12      4       0.000    
    305      1     12      5       0.000    
    306      1     12      6       0.000    
    307      1     12      7       0.000    
    308      1     12      8       0.000    
    309      1     12      9       0.000    
    310      1     12     10       0.000    
    311      1     12     11       0.000    
    312      1     12     12       0.000    
    313      1     12     13       0.000    
    314      1     12     14       0.000    
    315      1     12     15       0.000    
    316      1     12     16       0.000    
    317      1     12     17       0.000    
    318      1     12     18       0.000    
    319      1     12     19       0.000    
    320      1     12     20       0.000    
    321      1     12     21       0.000    
    322      1     12     22       0.000    
    323      1     12     23       0.000    
    324      1     12     24       0.000    
    325      1     12     25       0.000    
    326      1     12     26       0.000    
    327      1     12     27       0.000    
    328      1     12     28       0.000    
    329      1     12     29       0.000    
    330      1     12     30       0.000    
    331      1     13      1       0.000    
    332      1     13      2       0.000    
    333      1     13      3       0.000    
    334      1     13      4       0.000    
    335      1     13      5       0.000    
    336      1     13      6       0.000    
    337      1     13      7       0.000    
    338      1     13      8       0.000    
    339      1     13      9       0.000    
    340      1     13     10       0.000    
    341      1     13     11       0.000    
    342      1     13     12       0.000    
    343      1     13     13       0.000    
    344      1     13     14       0.000    
    345      1     13     15       0.000    
    346      1     13     16       0.000    
    347      1     13     17       0.000    
    348      1     13     18       0.000    
    349      1     13     19       0.000    
    350      1     13     20       0.000    
    351      1     13     21       0.000    
    352      1     13     22       0.000    
    353      1     13     23       0.000    
    354      1     13     24       0.000    
    355      1     13     25       0.000    
    356      1     13     26       0.000    
    357      1     13     27       0.000    
    358      1     13     28       0.000    
    359      1     13     29       0.000    
    360      1     13     30       0.000    
    361      1     14      1       0.000    
    362      1     14      2       0.000    
    363      1     14      3       0.000    
    364      1     14      4       0.000    
    365      1     14      5       0.000    
    366      1     14      6       0.000    
    367      1     14      7       0.000    
    368      1     14      8       0.000    
    369      1     14      9       0.000    
    370      1     14     10       0.000    
    371      1     14     11       0.000    
    372      1     14     12       0.000    
    373      1     14     13       0.000    
    374      1     14     14       0.000    
    375      1     14     15       0.000    
    376      1     14     16       0.000    
    377      1     14     17       0.000    
    378      1     14     18       0.000    
    379      1     14     19       0.000    
    380      1     14     20       0.000    
    381      1     14     21       0.000    
    382      1     14     22       0.000    
    383      1     14     23       0.000    
    384      1     14     24       0.000    
    385      1     14     25       0.000    
    386      1     14     26       0.000    
    387      1     14     27       0.000    
    388      1     14     28       0.000    
    389      1     14     29       0.000    
    390      1     14     30       0.000    
    391      1     15      1       0.000    
    392      1     15      2       0.000    
    393      1     15      3       0.000    
    394      1     15      4       0.000    
    395      1     15      5       0.000    
    396      1     15      6       0.000    
    397      1     15      7       0.000    
    398      1     15      8       0.000    
    399      1     15      9       0.000    
    400      1     15     10       0.000    
    401      1     15     11       0.000    
    402      1     15     12       0.000    
    403      1     15     13       0.000    
    404      1     15     14       0.000    
    405      1     15     15       0.000    
    406      1     15     16       0.000    
    407      1     15     17       0.000    
    408      1     15     18       0.000    
    409      1     15     19       0.000    
    410      1     15     20       0.000    
    411      1     15     21       0.000    
    412      1     15     22       0.000    
    413      1     15     23       0.000    
    414      1     15     24       0.000    
    415      1     15     25       0.000    
    416      1     15     26       0.000    
    417      1     15     27       0.000    
    418      1     15     28       0.000    
    419      1     15     29       0.000    
    420      1     15     30       0.000    
    421      1     16      1       0.000    
    422      1     16      2       0.000    
    423      1     16      3       0.000    
    424      1     16      4       0.000    
    425      1     16      5       0.000    
    426      1     16      6       0.000    
    427      1     16      7       0.000    
    428      1     16      8       0.000    
    429      1     16      9       0.000    
    430      1     16     10       0.000    
    431      1     16     11       0.000    
    432      1     16     12       0.000    
    433      1     16     13       0.000    
    434      1     16     14       0.000    
    435      1     16     15       0.000    
    436      1     16     16       0.000    
    437      1     16     17       0.000    
    438      1     16     18       0.000    
    439      1     16     19       0.000    
    440      1     16     20       0.000    
    441      1     16     21       0.000    
    442      1     16     22       0.000    
    443      1     16     23       0.000    
    444      1     16     24       0.000    
    445      1     16     25       0.000    
    446      1     16     26       0.000    
    447      1     16     27       0.000    
    448      1     16     28       0.000    
    449      1     16     29       0.000    
    450      1     16     30       0.000    
    451      1     17      1       0.000    
    452      1     17      2       0.000    
    453      1     17      3       0.000    
    454      1     17      4       0.000    
    455      1     17      5       0.000    
    456      1     17      6       0.000    
    457      1     17      7       0.000    
    458      1     17      8       0.000    
    459      1     17      9       0.000    
    460      1     17     10       0.000    
    461      1     17     11       0.000    
    462      1     17     12       0.000    
    463      1     17     13       0.000    
    464      1     17     14       0.000    
    465      1     17     15       0.000    
    466      1     17     16       0.000    
    467      1     17     17       0.000    
    468      1     17     18       0.000    
    469      1     17     19       0.000    
    470      1     17     20       0.000    
    471      1     17     21       0.000    
    472      1     17     22       0.000    
    473      1     17     23       0.000    
    474      1     17     24       0.000    
    475      1     17     25       0.000    
    476      1     17     26       0.000    
    477      1     17     27       0.000    
    478      1     17     28       0.000    
    479      1     17     29       0.000    
    480      1     17     30       0.000    
    481      1     18      1       0.000    
    482      1     18      2       0.000    
    483      1     18      3       0.000    
    484      1     18      4       0.000    
    485      1     18      5       0.000    
    486      1     18      6       0.000    
    487      1     18      7       0.000    
    488      1     18      8       0.000    
    489      1     18      9       0.000    
    490      1     18     10       0.000    
    491      1     18     11       0.000    
    492      1     18     12       0.000    
    493      1     18     13       0.000    
    494      1     18     14       0.000    
    495      1     18     15       0.000    
    496      1     18     16       0.000    
    497      1     18     17       0.000    
    498      1     18     18       0.000    
    499      1     18     19       0.000    
    500      1     18     20       0.000    
    501      1     18     21       0.000    
    502      1     18     22       0.000    
    503      1     18     23       0.000    
    504      1     18     24       0.000    
    505      1     18     25       0.000    
    506      1     18     26       0.000    
    507      1     18     27       0.000    
    508      1     18     28       0.000    
    509      1     18     29       0.000    
    510      1     18     30       0.000    
    511      1     19      1       0.000    
    512      1     19      2       0.000    
    513      1     19      3       0.000    
    514      1     19      4       0.000    
    515      1     19      5       0.000    
    516      1     19      6       0.000    
    517      1     19      7       0.000    
    518      1     19      8       0.000    
    519      1     19      9       0.000    
    520      1     19     10       0.000    
    521      1     19     11       0.000    
    522      1     19     12       0.000    
    523      1     19     13       0.000    
    524      1     19     14       0.000    
    525      1     19     15       0.000    
    526      1     19     16       0.000    
    527      1     19     17       0.000    
    528      1     19     18       0.000    
    529      1     19     19       0.000    
    530      1     19     20       0.000    
    531      1     19     21       0.000    
    532      1     19     22       0.000    
    533      1     19     23       0.000    
    534      1     19     24       0.000    
    535      1     19     25       0.000    
    536      1     19     26       0.000    
    537      1     19     27       0.000    
    538      1     19     28       0.000    
    539      1     19     29       0.000    
    540      1     19     30       0.000    
    541      1     20      1       0.000    
    542      1     20      2       0.000    
    543      1     20      3       0.000    
    544      1     20      4       0.000    
    545      1     20      5       0.000    
    546      1     20      6       0.000    
    547      1     20      7       0.000    
    548      1     20      8       0.000    
    549      1     20      9       0.000    
    550      1     20     10       0.000    
    551      1     20     11       0.000    
    552      1     20     12       0.000    
    553      1     20     13       0.000    
    554      1     20     14       0.000    
    555      1     20     15       0.000    
    556      1     20     16       0.000    
    557      1     20     17       0.000    
    558      1     20     18       0.000    
    559      1     20     19       0.000    
    560      1     20     20       0.000    
    561      1     20     21       0.000    
    562      1     20     22       0.000    
    563      1     20     23       0.000    
    564      1     20     24       0.000    
    565      1     20     25       0.000    
    566      1     20     26       0.000    
    567      1     20     27       0.000    
    568      1     20     28       0.000    
    569      1     20     29       0.000    
    570      1     20     30       0.000    
    571      1     21      1       0.000    
    572      1     21      2       0.000    
    573      1     21      3       0.000    
    574      1     21      4       0.000    
    575      1     21      5       0.000    
    576      1     21      6       0.000    
    577      1     21      7       0.000    
    578      1     21      8       0.000    
    579      1     21      9       0.000    
    580      1     21     10       0.000    
    581      1     21     11       0.000    
    582      1     21     12       0.000    
    583      1     21     13       0.000    
    584      1     21     14       0.000    
    585      1     21     15       0.000    
    586      1     21     16       0.000    
    587      1     21     17       0.000    
    588      1     21     18       0.000    
    589      1     21     19       0.000    
    590      1     21     20       0.000    
    591      1     21     21       0.000    
    592      1     21     22       0.000    
    593      1     21     23       0.000    
    594      1     21     24       0.000    
    595      1     21     25       0.000    
    596      1     21     26       0.000    
    597      1     21     27       0.000    
    598      1     21     28       0.000    
    599      1     21     29       0.000    
    600      1     21     30       0.000    
    601      1     22      1       0.000    
    602      1     22      2       0.000    
    603      1     22      3       0.000    
    604      1     22      4       0.000    
    605      1     22      5       0.000    
    606      1     22      6       0.000    
    607      1     22      7       0.000    
    608      1     22      8       0.000    
    609      1     22      9       0.000    
    610      1     22     10       0.000    
    611      1     22     11       0.000    
    612      1     22     12       0.000    
    613      1     22     13       0.000    
    614      1     22     14       0.000    
    615      1     22     15       0.000    
    616      1     22     16       0.000    
    617      1     22     17       0.000    
    618      1     22     18       0.000    
    619      1     22     19       0.000    
    620      1     22     20       0.000    
    621      1     22     21       0.000    
    622      1     22     22       0.000    
    623      1     22     23       0.000    
    624      1     22     24       0.000    
    625      1     22     25       0.000    
    626      1     22     26       0.000    
    627      1     22     27       0.000    
    628      1     22     28       0.000    
    629      1     22     29       0.000    
    630      1     22     30       0.000    
    631      1     23      1       0.000    
    632      1     23      2       0.000    
    633      1     23      3       0.000    
    634      1     23      4       0.000    
    635      1     23      5       0.000    
    636      1     23      6       0.000    
    637      1     23      7       0.000    
    638      1     23      8       0.000    
    639      1     23      9       0.000    
    640      1     23     10       0.000    
    641      1     23     11       0.000    
    642      1     23     12       0.000    
    643      1     23     13       0.000    
    644      1     23     14       0.000    
    645      1     23     15       0.000    
    646      1     23     16       0.000    
    647      1     23     17       0.000    
    648      1     23     18       0.000    
    649      1     23     19       0.000    
    650      1     23     20       0.000    
    651      1     23     21       0.000    
    652      1     23     22       0.000    
    653      1     23     23       0.000    
    654      1     23     24       0.000    
    655      1     23     25       0.000    
    656      1     23     26       0.000    
    657      1     23     27       0.000    
    658      1     23     28       0.000    
    659      1     23     29       0.000    
    660      1     23     30       0.000    
    661      1     24      1       0.000    
    662      1     24      2       0.000    
    663      1     24      3       0.000    
    664      1     24      4       0.000    
    665      1     24      5       0.000    
    666      1     24      6       0.000    
    667      1     24      7       0.000    
    668      1     24      8       0.000    
    669      1     24      9       0.000    
    670      1     24     10       0.000    
    671      1     24     11       0.000    
    672      1     24     12       0.000    
    673      1     24     13       0.000    
    674      1     24     14       0.000    
    675      1     24     15       0.000    
    676      1     24     16       0.000    
    677      1     24     17       0.000    
    678      1     24     18       0.000    
    679      1     24     19       0.000    
    680      1     24     20       0.000    
    681      1     24     21       0.000    
    682      1     24     22       0.000    
    683      1     24     23       0.000    
    684      1     24     24       0.000    
    685      1     24     25       0.000    
    686      1     24     26       0.000    
    687      1     24     27       0.000    
    688      1     24     28       0.000    
    689      1     24     29       0.000    
    690      1     24     30       0.000    

    690 WELLS

                 RECHARGE =  1.000000E-03

 REUSING STREAM SEGMENT DATA FROM LAST STRESS PERIOD

 SOLVING FOR HEAD 


     5 CALLS TO PCG ROUTINE FOR TIME STEP   1 IN STRESS PERIOD    4
    17 TOTAL ITERATIONS

 OUTPUT CONTROL FOR STRESS PERIOD    4   TIME STEP    1
    SAVE HEAD FOR ALL LAYERS
    SAVE BUDGET



 STREAM LISTING     PERIOD      4   STEP        1

 LAYER ROW COL. STREAM  RCH.  FLOW INTO     FLOW TO   FLOW OUT OF   OVRLND.     DIRECT     STREAM       STREAM     STREAM     STREAM   STREAMBED  STREAMBED
                SEG.NO.  NO.  STRM. RCH.    AQUIFER    STRM. RCH.    RUNOFF     PRECIP       ET          HEAD       DEPTH      WIDTH   CONDCTNC.   GRADIENT

   1   13    1     1     1    1.0000E+05 -2.7912E+04   1.2791E+05  0.000E+00  0.000E+00  0.000E+00  4.84178E+01  1.564E-01  2.000E+01  2.000E+04 -1.396E+00
   1   13    2     1     2    1.2791E+05 -3.7673E+04   1.6559E+05  0.000E+00  0.000E+00  0.000E+00  4.79662E+01  1.821E-01  2.000E+01  2.000E+04 -1.884E+00
   1   14    3     1     3    1.6559E+05 -3.3150E+04   1.9874E+05  0.000E+00  0.000E+00  0.000E+00  4.75141E+01  2.073E-01  2.000E+01  2.000E+04 -1.658E+00
   1   15    4     1     4    1.9874E+05 -3.2385E+04   2.3112E+05  0.000E+00  0.000E+00  0.000E+00  4.70585E+01  2.289E-01  2.000E+01  2.000E+04 -1.619E+00
   1   16    5     1     5    2.3112E+05 -3.3899E+04   2.6502E+05  0.000E+00  0.000E+00  0.000E+00  4.66018E+01  2.495E-01  2.000E+01  2.000E+04 -1.695E+00
   1   16    6     1     6    2.6502E+05 -2.9628E+04   2.9465E+05  0.000E+00  0.000E+00  0.000E+00  4.61432E+01  2.682E-01  2.000E+01  2.000E+04 -1.481E+00
   1   16    7     1     7    2.9465E+05 -2.9462E+04   3.2411E+05  0.000E+00  0.000E+00  0.000E+00  4.56826E+01  2.849E-01  2.000E+01  2.000E+04 -1.473E+00
   1   16    8     1     8    3.2411E+05 -2.9660E+04   3.5377E+05  0.000E+00  0.000E+00  0.000E+00  4.52213E+01  3.009E-01  2.000E+01  2.000E+04 -1.483E+00
   1   16    9     1     9    3.5377E+05 -2.9758E+04   3.8353E+05  0.000E+00  0.000E+00  0.000E+00  4.47596E+01  3.164E-01  2.000E+01  2.000E+04 -1.488E+00
   1   16   10     1    10    3.8353E+05 -2.9807E+04   4.1334E+05  0.000E+00  0.000E+00  0.000E+00  4.42974E+01  3.315E-01  2.000E+01  2.000E+04 -1.490E+00
   1   16   11     1    11    4.1334E+05 -3.0442E+04   4.4378E+05  0.000E+00  0.000E+00  0.000E+00  4.38350E+01  3.464E-01  2.000E+01  2.000E+04 -1.522E+00
   1   16   12     1    12    4.4378E+05 -3.6024E+04   4.7980E+05  0.000E+00  0.000E+00  0.000E+00  4.33736E+01  3.622E-01  2.000E+01  2.000E+04 -1.801E+00
   1   15   13     1    13    4.7980E+05 -3.4786E+04   5.1459E+05  0.000E+00  0.000E+00  0.000E+00  4.29127E+01  3.787E-01  2.000E+01  2.000E+04 -1.739E+00
   1   14   14     1    14    5.1459E+05 -3.5383E+04   5.4997E+05  0.000E+00  0.000E+00  0.000E+00  4.24513E+01  3.945E-01  2.000E+01  2.000E+04 -1.769E+00
   1   13   15     1    15    5.4997E+05 -3.7603E+04   5.8757E+05  0.000E+00  0.000E+00  0.000E+00  4.19900E+01  4.105E-01  2.000E+01  2.000E+04 -1.880E+00
   1   12   16     1    16    5.8757E+05 -4.3632E+04   6.3120E+05  0.000E+00  0.000E+00  0.000E+00  4.15301E+01  4.278E-01  2.000E+01  2.000E+04 -2.182E+00
   1   12   17     1    17    6.3120E+05 -3.4149E+04   6.6535E+05  0.000E+00  0.000E+00  0.000E+00  4.10690E+01  4.440E-01  2.000E+01  2.000E+04 -1.707E+00
   1   12   18     1    18    6.6535E+05 -3.2529E+04   6.9788E+05  0.000E+00  0.000E+00  0.000E+00  4.06053E+01  4.576E-01  2.000E+01  2.000E+04 -1.626E+00
   1   12   19     1    19    6.9788E+05 -3.6620E+04   7.3450E+05  0.000E+00  0.000E+00  0.000E+00  4.01418E+01  4.713E-01  2.000E+01  2.000E+04 -1.831E+00
   1   13   20     1    20    7.3450E+05 -2.6934E+04   7.6144E+05  0.000E+00  0.000E+00  0.000E+00  3.96770E+01  4.838E-01  2.000E+01  2.000E+04 -1.347E+00
   1   14   21     1    21    7.6144E+05 -1.9846E+04   7.8128E+05  0.000E+00  0.000E+00  0.000E+00  3.92087E+01  4.928E-01  2.000E+01  2.000E+04 -9.923E-01
   1   14   22     1    22    7.8128E+05 -1.7861E+03   7.8307E+05  0.000E+00  0.000E+00  0.000E+00  3.87356E+01  4.969E-01  2.000E+01  2.000E+04 -8.930E-02
   1    9   30     2     1    5.0000E+04 -2.6637E+04   7.6637E+04  0.000E+00  0.000E+00  0.000E+00  4.02585E+01  1.335E-01  2.000E+01  2.000E+04 -1.332E+00
   1    9   29     2     2    7.6637E+04 -2.9105E+04   1.0574E+05  0.000E+00  0.000E+00  0.000E+00  4.00412E+01  1.662E-01  2.000E+01  2.000E+04 -1.455E+00
   1    9   28     2     3    1.0574E+05 -3.3399E+04   1.3914E+05  0.000E+00  0.000E+00  0.000E+00  3.98233E+01  1.983E-01  2.000E+01  2.000E+04 -1.670E+00
   1    9   27     2     4    1.3914E+05 -4.7549E+04   1.8669E+05  0.000E+00  0.000E+00  0.000E+00  3.96104E+01  2.354E-01  2.000E+01  2.000E+04 -2.377E+00
   1   10   26     2     5    1.8669E+05 -3.3536E+04   2.2023E+05  0.000E+00  0.000E+00  0.000E+00  3.93939E+01  2.689E-01  2.000E+01  2.000E+04 -1.677E+00
   1   11   25     2     6    2.2023E+05 -2.5196E+04   2.4542E+05  0.000E+00  0.000E+00  0.000E+00  3.91666E+01  2.916E-01  2.000E+01  2.000E+04 -1.260E+00
   1   12   24     2     7    2.4542E+05 -1.8628E+04   2.6405E+05  0.000E+00  0.000E+00  0.000E+00  3.89328E+01  3.078E-01  2.000E+01  2.000E+04 -9.314E-01
   1   13   23     2     8    2.6405E+05 -1.3274E+04   2.7732E+05  0.000E+00  0.000E+00  0.000E+00  3.86942E+01  3.192E-01  2.000E+01  2.000E+04 -6.637E-01
   1   14   22     2     9    2.7732E+05 -7.4682E+03   2.8479E+05  0.000E+00  0.000E+00  0.000E+00  3.84515E+01  3.265E-01  2.000E+01  2.000E+04 -3.734E-01
   1   14   22     3     1    1.0679E+06 -1.5402E+04   1.0833E+06  0.000E+00  0.000E+00  0.000E+00  3.80548E+01  4.992E-01  2.000E+01  2.000E+04 -7.701E-01
   1   15   23     3     2    1.0833E+06 -2.3814E+04   1.1071E+06  0.000E+00  0.000E+00  0.000E+00  3.71713E+01  5.046E-01  2.000E+01  2.000E+04 -1.191E+00
   1   15   24     3     3    1.1071E+06 -1.9819E+04   1.1269E+06  0.000E+00  0.000E+00  0.000E+00  3.62884E+01  5.107E-01  2.000E+01  2.000E+04 -9.910E-01
   1   15   25     3     4    1.1269E+06 -1.9409E+04   1.1463E+06  0.000E+00  0.000E+00  0.000E+00  3.54049E+01  5.160E-01  2.000E+01  2.000E+04 -9.705E-01
   1   15   26     3     5    1.1463E+06 -2.2171E+04   1.1685E+06  0.000E+00  0.000E+00  0.000E+00  3.45217E+01  5.217E-01  2.000E+01  2.000E+04 -1.109E+00
   1   16   27     3     6    1.1685E+06 -2.9365E+04   1.1978E+06  0.000E+00  0.000E+00  0.000E+00  3.36397E+01  5.286E-01  2.000E+01  2.000E+04 -1.468E+00
   1   17   28     3     7    1.1978E+06 -3.6428E+04   1.2343E+06  0.000E+00  0.000E+00  0.000E+00  3.27596E+01  5.374E-01  2.000E+01  2.000E+04 -1.821E+00
   1   18   29     3     8    1.2343E+06 -4.7415E+04   1.2817E+06  0.000E+00  0.000E+00  0.000E+00  3.18817E+01  5.484E-01  2.000E+01  2.000E+04 -2.371E+00
   1   18   30     3     9    1.2817E+06 -4.3820E+04   1.3255E+06  0.000E+00  0.000E+00  0.000E+00  3.10047E+01  5.603E-01  2.000E+01  2.000E+04 -2.191E+00




 HEAD WILL BE SAVED ON UNIT   51 AT END OF TIME STEP    1, STRESS PERIOD    4
1
  VOLUMETRIC BUDGET FOR ENTIRE MODEL AT END OF TIME STEP    1, STRESS PERIOD   4
  ------------------------------------------------------------------------------

     CUMULATIVE VOLUMES      L**3       RATES FOR THIS TIME STEP      L**3/T
     ------------------                 ------------------------

           IN:                                      IN:
           ---                                      ---
             STORAGE =    19792494.0000               STORAGE =           0.0000
       CONSTANT HEAD =   413929376.0000         CONSTANT HEAD =     1149041.1250
               WELLS =           0.0000                 WELLS =           0.0000
            RECHARGE =     8804400.0000              RECHARGE =       27600.0000
      STREAM LEAKAGE =           0.0000        STREAM LEAKAGE =           0.0000

            TOTAL IN =   442526272.0000              TOTAL IN =     1176641.1250

          OUT:                                     OUT:
          ----                                     ----
             STORAGE =      103379.5078               STORAGE =        1136.0386
       CONSTANT HEAD =           0.0000         CONSTANT HEAD =           0.0000
               WELLS =           0.0000                 WELLS =           0.0000
            RECHARGE =           0.0000              RECHARGE =           0.0000
      STREAM LEAKAGE =   442422848.0000        STREAM LEAKAGE =     1175504.1250

           TOTAL OUT =   442526240.0000             TOTAL OUT =     1176640.1250

            IN - OUT =          32.0000              IN - OUT =           1.0000

 PERCENT DISCREPANCY =           0.00     PERCENT DISCREPANCY =           0.00






         TIME SUMMARY AT END OF TIME STEP    1 IN STRESS PERIOD    4
                    SECONDS     MINUTES      HOURS       DAYS        YEARS
                    -----------------------------------------------------------
   TIME STEP LENGTH 7.86240E+06 1.31040E+05  2184.0      91.000     0.24914    
 STRESS PERIOD TIME 7.86240E+06 1.31040E+05  2184.0      91.000     0.24914    
         TOTAL TIME 3.15360E+07 5.25600E+05  8760.0      365.00     0.99932    
1
1
                            STRESS PERIOD NO.    5, LENGTH =   92.00000    
                            -----------------------------------------------

                              NUMBER OF TIME STEPS =     1

                               MULTIPLIER FOR DELT =     1.500

                            INITIAL TIME STEP SIZE =   92.00000    

 WELL NO.  LAYER   ROW   COL   STRESS RATE         
 --------------------------------------------------
      1      1      2      1       0.000    
      2      1      2      2       0.000    
      3      1      2      3       0.000    
      4      1      2      4       0.000    
      5      1      2      5       0.000    
      6      1      2      6       0.000    
      7      1      2      7       0.000    
      8      1      2      8       0.000    
      9      1      2      9       0.000    
     10      1      2     10       0.000    
     11      1      2     11       0.000    
     12      1      2     12       0.000    
     13      1      2     13       0.000    
     14      1      2     14       0.000    
     15      1      2     15       0.000    
     16      1      2     16       0.000    
     17      1      2     17       0.000    
     18      1      2     18       0.000    
     19      1      2     19       0.000    
     20      1      2     20       0.000    
     21      1      2     21       0.000    
     22      1      2     22       0.000    
     23      1      2     23       0.000    
     24      1      2     24       0.000    
     25      1      2     25       0.000    
     26      1      2     26       0.000    
     27      1      2     27       0.000    
     28      1      2     28       0.000    
     29      1      2     29       0.000    
     30      1      2     30       0.000    
     31      1      3      1       0.000    
     32      1      3      2       0.000    
     33      1      3      3       0.000    
     34      1      3      4       0.000    
     35      1      3      5       0.000    
     36      1      3      6       0.000    
     37      1      3      7       0.000    
     38      1      3      8       0.000    
     39      1      3      9       0.000    
     40      1      3     10       0.000    
     41      1      3     11       0.000    
     42      1      3     12       0.000    
     43      1      3     13       0.000    
     44      1      3     14       0.000    
     45      1      3     15       0.000    
     46      1      3     16       0.000    
     47      1      3     17       0.000    
     48      1      3     18       0.000    
     49      1      3     19       0.000    
     50      1      3     20       0.000    
     51      1      3     21       0.000    
     52      1      3     22       0.000    
     53      1      3     23       0.000    
     54      1      3     24       0.000    
     55      1      3     25       0.000    
     56      1      3     26       0.000    
     57      1      3     27       0.000    
     58      1      3     28       0.000    
     59      1      3     29       0.000    
     60      1      3     30       0.000    
     61      1      4      1       0.000    
     62      1      4      2       0.000    
     63      1      4      3       0.000    
     64      1      4      4       0.000    
     65      1      4      5       0.000    
     66      1      4      6       0.000    
     67      1      4      7       0.000    
     68      1      4      8       0.000    
     69      1      4      9       0.000    
     70      1      4     10       0.000    
     71      1      4     11       0.000    
     72      1      4     12       0.000    
     73      1      4     13       0.000    
     74      1      4     14       0.000    
     75      1      4     15       0.000    
     76      1      4     16       0.000    
     77      1      4     17       0.000    
     78      1      4     18       0.000    
     79      1      4     19       0.000    
     80      1      4     20       0.000    
     81      1      4     21       0.000    
     82      1      4     22       0.000    
     83      1      4     23       0.000    
     84      1      4     24       0.000    
     85      1      4     25       0.000    
     86      1      4     26       0.000    
     87      1      4     27       0.000    
     88      1      4     28       0.000    
     89      1      4     29       0.000    
     90      1      4     30       0.000    
     91      1      5      1       0.000    
     92      1      5      2       0.000    
     93      1      5      3       0.000    
     94      1      5      4       0.000    
     95      1      5      5       0.000    
     96      1      5      6       0.000    
     97      1      5      7       0.000    
     98      1      5      8       0.000    
     99      1      5      9       0.000    
    100      1      5     10       0.000    
    101      1      5     11       0.000    
    102      1      5     12       0.000    
    103      1      5     13       0.000    
    104      1      5     14       0.000    
    105      1      5     15       0.000    
    106      1      5     16       0.000    
    107      1      5     17       0.000    
    108      1      5     18       0.000    
    109      1      5     19       0.000    
    110      1      5     20       0.000    
    111      1      5     21       0.000    
    112      1      5     22       0.000    
    113      1      5     23       0.000    
    114      1      5     24       0.000    
    115      1      5     25       0.000    
    116      1      5     26       0.000    
    117      1      5     27       0.000    
    118      1      5     28       0.000    
    119      1      5     29       0.000    
    120      1      5     30       0.000    
    121      1      6      1       0.000    
    122      1      6      2       0.000    
    123      1      6      3       0.000    
    124      1      6      4       0.000    
    125      1      6      5       0.000    
    126      1      6      6       0.000    
    127      1      6      7       0.000    
    128      1      6      8       0.000    
    129      1      6      9       0.000    
    130      1      6     10       0.000    
    131      1      6     11       0.000    
    132      1      6     12       0.000    
    133      1      6     13       0.000    
    134      1      6     14       0.000    
    135      1      6     15       0.000    
    136      1      6     16       0.000    
    137      1      6     17       0.000    
    138      1      6     18       0.000    
    139      1      6     19       0.000    
    140      1      6     20       0.000    
    141      1      6     21       0.000    
    142      1      6     22       0.000    
    143      1      6     23       0.000    
    144      1      6     24       0.000    
    145      1      6     25       0.000    
    146      1      6     26       0.000    
    147      1      6     27       0.000    
    148      1      6     28       0.000    
    149      1      6     29       0.000    
    150      1      6     30       0.000    
    151      1      7      1       0.000    
    152      1      7      2       0.000    
    153      1      7      3       0.000    
    154      1      7      4       0.000    
    155      1      7      5       0.000    
    156      1      7      6       0.000    
    157      1      7      7       0.000    
    158      1      7      8       0.000    
    159      1      7      9       0.000    
    160      1      7     10       0.000    
    161      1      7     11       0.000    
    162      1      7     12       0.000    
    163      1      7     13       0.000    
    164      1      7     14       0.000    
    165      1      7     15       0.000    
    166      1      7     16       0.000    
    167      1      7     17       0.000    
    168      1      7     18       0.000    
    169      1      7     19       0.000    
    170      1      7     20       0.000    
    171      1      7     21       0.000    
    172      1      7     22       0.000    
    173      1      7     23       0.000    
    174      1      7     24       0.000    
    175      1      7     25       0.000    
    176      1      7     26       0.000    
    177      1      7     27       0.000    
    178      1      7     28       0.000    
    179      1      7     29       0.000    
    180      1      7     30       0.000    
    181      1      8      1       0.000    
    182      1      8      2       0.000    
    183      1      8      3       0.000    
    184      1      8      4       0.000    
    185      1      8      5       0.000    
    186      1      8      6       0.000    
    187      1      8      7       0.000    
    188      1      8      8       0.000    
    189      1      8      9       0.000    
    190      1      8     10       0.000    
    191      1      8     11       0.000    
    192      1      8     12       0.000    
    193      1      8     13       0.000    
    194      1      8     14       0.000    
    195      1      8     15       0.000    
    196      1      8     16       0.000    
    197      1      8     17       0.000    
    198      1      8     18       0.000    
    199      1      8     19       0.000    
    200      1      8     20       0.000    
    201      1      8     21       0.000    
    202      1      8     22       0.000    
    203      1      8     23       0.000    
    204      1      8     24       0.000    
    205      1      8     25       0.000    
    206      1      8     26       0.000    
    207      1      8     27       0.000    
    208      1      8     28       0.000    
    209      1      8     29       0.000    
    210      1      8     30       0.000    
    211      1      9      1       0.000    
    212      1      9      2       0.000    
    213      1      9      3       0.000    
    214      1      9      4       0.000    
    215      1      9      5       0.000    
    216      1      9      6       0.000    
    217      1      9      7       0.000    
    218      1      9      8       0.000    
    219      1      9      9       0.000    
    220      1      9     10       0.000    
    221      1      9     11       0.000    
    222      1      9     12       0.000    
    223      1      9     13       0.000    
    224      1      9     14       0.000    
    225      1      9     15       0.000    
    226      1      9     16       0.000    
    227      1      9     17       0.000    
    228      1      9     18       0.000    
    229      1      9     19       0.000    
    230      1      9     20       0.000    
    231      1      9     21       0.000    
    232      1      9     22       0.000    
    233      1      9     23       0.000    
    234      1      9     24       0.000    
    235      1      9     25       0.000    
    236      1      9     26       0.000    
    237      1      9     27       0.000    
    238      1      9     28       0.000    
    239      1      9     29       0.000    
    240      1      9     30       0.000    
    241      1     10      1       0.000    
    242      1     10      2       0.000    
    243      1     10      3       0.000    
    244      1     10      4       0.000    
    245      1     10      5       0.000    
    246      1     10      6       0.000    
    247      1     10      7       0.000    
    248      1     10      8       0.000    
    249      1     10      9       0.000    
    250      1     10     10       0.000    
    251      1     10     11       0.000    
    252      1     10     12       0.000    
    253      1     10     13       0.000    
    254      1     10     14       0.000    
    255      1     10     15       0.000    
    256      1     10     16       0.000    
    257      1     10     17       0.000    
    258      1     10     18       0.000    
    259      1     10     19       0.000    
    260      1     10     20       0.000    
    261      1     10     21       0.000    
    262      1     10     22       0.000    
    263      1     10     23       0.000    
    264      1     10     24       0.000    
    265      1     10     25       0.000    
    266      1     10     26       0.000    
    267      1     10     27       0.000    
    268      1     10     28       0.000    
    269      1     10     29       0.000    
    270      1     10     30       0.000    
    271      1     11      1       0.000    
    272      1     11      2       0.000    
    273      1     11      3       0.000    
    274      1     11      4       0.000    
    275      1     11      5       0.000    
    276      1     11      6       0.000    
    277      1     11      7       0.000    
    278      1     11      8       0.000    
    279      1     11      9       0.000    
    280      1     11     10       0.000    
    281      1     11     11       0.000    
    282      1     11     12       0.000    
    283      1     11     13       0.000    
    284      1     11     14       0.000    
    285      1     11     15       0.000    
    286      1     11     16       0.000    
    287      1     11     17       0.000    
    288      1     11     18       0.000    
    289      1     11     19       0.000    
    290      1     11     20       0.000    
    291      1     11     21       0.000    
    292      1     11     22       0.000    
    293      1     11     23       0.000    
    294      1     11     24       0.000    
    295      1     11     25       0.000    
    296      1     11     26       0.000    
    297      1     11     27       0.000    
    298      1     11     28       0.000    
    299      1     11     29       0.000    
    300      1     11     30       0.000    
    301      1     12      1       0.000    
    302      1     12      2       0.000    
    303      1     12      3       0.000    
    304      1     12      4       0.000    
    305      1     12      5       0.000    
    306      1     12      6       0.000    
    307      1     12      7       0.000    
    308      1     12      8       0.000    
    309      1     12      9       0.000    
    310      1     12     10       0.000    
    311      1     12     11       0.000    
    312      1     12     12       0.000    
    313      1     12     13       0.000    
    314      1     12     14       0.000    
    315      1     12     15       0.000    
    316      1     12     16       0.000    
    317      1     12     17       0.000    
    318      1     12     18       0.000    
    319      1     12     19       0.000    
    320      1     12     20       0.000    
    321      1     12     21       0.000    
    322      1     12     22       0.000    
    323      1     12     23       0.000    
    324      1     12     24       0.000    
    325      1     12     25       0.000    
    326      1     12     26       0.000    
    327      1     12     27       0.000    
    328      1     12     28       0.000    
    329      1     12     29       0.000    
    330      1     12     30       0.000    
    331      1     13      1       0.000    
    332      1     13      2       0.000    
    333      1     13      3       0.000    
    334      1     13      4       0.000    
    335      1     13      5       0.000    
    336      1     13      6       0.000    
    337      1     13      7       0.000    
    338      1     13      8       0.000    
    339      1     13      9       0.000    
    340      1     13     10       0.000    
    341      1     13     11       0.000    
    342      1     13     12       0.000    
    343      1     13     13       0.000    
    344      1     13     14       0.000    
    345      1     13     15       0.000    
    346      1     13     16       0.000    
    347      1     13     17       0.000    
    348      1     13     18       0.000    
    349      1     13     19       0.000    
    350      1     13     20       0.000    
    351      1     13     21       0.000    
    352      1     13     22       0.000    
    353      1     13     23       0.000    
    354      1     13     24       0.000    
    355      1     13     25       0.000    
    356      1     13     26       0.000    
    357      1     13     27       0.000    
    358      1     13     28       0.000    
    359      1     13     29       0.000    
    360      1     13     30       0.000    
    361      1     14      1       0.000    
    362      1     14      2       0.000    
    363      1     14      3       0.000    
    364      1     14      4       0.000    
    365      1     14      5       0.000    
    366      1     14      6       0.000    
    367      1     14      7       0.000    
    368      1     14      8       0.000    
    369      1     14      9       0.000    
    370      1     14     10       0.000    
    371      1     14     11       0.000    
    372      1     14     12       0.000    
    373      1     14     13       0.000    
    374      1     14     14       0.000    
    375      1     14     15       0.000    
    376      1     14     16       0.000    
    377      1     14     17       0.000    
    378      1     14     18       0.000    
    379      1     14     19       0.000    
    380      1     14     20       0.000    
    381      1     14     21       0.000    
    382      1     14     22       0.000    
    383      1     14     23       0.000    
    384      1     14     24       0.000    
    385      1     14     25       0.000    
    386      1     14     26       0.000    
    387      1     14     27       0.000    
    388      1     14     28       0.000    
    389      1     14     29       0.000    
    390      1     14     30       0.000    
    391      1     15      1       0.000    
    392      1     15      2       0.000    
    393      1     15      3       0.000    
    394      1     15      4       0.000    
    395      1     15      5       0.000    
    396      1     15      6       0.000    
    397      1     15      7       0.000    
    398      1     15      8       0.000    
    399      1     15      9       0.000    
    400      1     15     10       0.000    
    401      1     15     11       0.000    
    402      1     15     12       0.000    
    403      1     15     13       0.000    
    404      1     15     14       0.000    
    405      1     15     15       0.000    
    406      1     15     16       0.000    
    407      1     15     17       0.000    
    408      1     15     18       0.000    
    409      1     15     19       0.000    
    410      1     15     20       0.000    
    411      1     15     21       0.000    
    412      1     15     22       0.000    
    413      1     15     23       0.000    
    414      1     15     24       0.000    
    415      1     15     25       0.000    
    416      1     15     26       0.000    
    417      1     15     27       0.000    
    418      1     15     28       0.000    
    419      1     15     29       0.000    
    420      1     15     30       0.000    
    421      1     16      1       0.000    
    422      1     16      2       0.000    
    423      1     16      3       0.000    
    424      1     16      4       0.000    
    425      1     16      5       0.000    
    426      1     16      6       0.000    
    427      1     16      7       0.000    
    428      1     16      8       0.000    
    429      1     16      9       0.000    
    430      1     16     10       0.000    
    431      1     16     11       0.000    
    432      1     16     12       0.000    
    433      1     16     13       0.000    
    434      1     16     14       0.000    
    435      1     16     15       0.000    
    436      1     16     16       0.000    
    437      1     16     17       0.000    
    438      1     16     18       0.000    
    439      1     16     19       0.000    
    440      1     16     20       0.000    
    441      1     16     21       0.000    
    442      1     16     22       0.000    
    443      1     16     23       0.000    
    444      1     16     24       0.000    
    445      1     16     25       0.000    
    446      1     16     26       0.000    
    447      1     16     27       0.000    
    448      1     16     28       0.000    
    449      1     16     29       0.000    
    450      1     16     30       0.000    
    451      1     17      1       0.000    
    452      1     17      2       0.000    
    453      1     17      3       0.000    
    454      1     17      4       0.000    
    455      1     17      5       0.000    
    456      1     17      6       0.000    
    457      1     17      7       0.000    
    458      1     17      8       0.000    
    459      1     17      9       0.000    
    460      1     17     10       0.000    
    461      1     17     11       0.000    
    462      1     17     12       0.000    
    463      1     17     13       0.000    
    464      1     17     14       0.000    
    465      1     17     15       0.000    
    466      1     17     16       0.000    
    467      1     17     17       0.000    
    468      1     17     18       0.000    
    469      1     17     19       0.000    
    470      1     17     20       0.000    
    471      1     17     21       0.000    
    472      1     17     22       0.000    
    473      1     17     23       0.000    
    474      1     17     24       0.000    
    475      1     17     25       0.000    
    476      1     17     26       0.000    
    477      1     17     27       0.000    
    478      1     17     28       0.000    
    479      1     17     29       0.000    
    480      1     17     30       0.000    
    481      1     18      1       0.000    
    482      1     18      2       0.000    
    483      1     18      3       0.000    
    484      1     18      4       0.000    
    485      1     18      5       0.000    
    486      1     18      6       0.000    
    487      1     18      7       0.000    
    488      1     18      8       0.000    
    489      1     18      9       0.000    
    490      1     18     10       0.000    
    491      1     18     11       0.000    
    492      1     18     12       0.000    
    493      1     18     13       0.000    
    494      1     18     14       0.000    
    495      1     18     15       0.000    
    496      1     18     16       0.000    
    497      1     18     17       0.000    
    498      1     18     18       0.000    
    499      1     18     19       0.000    
    500      1     18     20       0.000    
    501      1     18     21       0.000    
    502      1     18     22       0.000    
    503      1     18     23       0.000    
    504      1     18     24       0.000    
    505      1     18     25       0.000    
    506      1     18     26       0.000    
    507      1     18     27       0.000    
    508      1     18     28       0.000    
    509      1     18     29       0.000    
    510      1     18     30       0.000    
    511      1     19      1       0.000    
    512      1     19      2       0.000    
    513      1     19      3       0.000    
    514      1     19      4       0.000    
    515      1     19      5       0.000    
    516      1     19      6       0.000    
    517      1     19      7       0.000    
    518      1     19      8       0.000    
    519      1     19      9       0.000    
    520      1     19     10       0.000    
    521      1     19     11       0.000    
    522      1     19     12       0.000    
    523      1     19     13       0.000    
    524      1     19     14       0.000    
    525      1     19     15       0.000    
    526      1     19     16       0.000    
    527      1     19     17       0.000    
    528      1     19     18       0.000    
    529      1     19     19       0.000    
    530      1     19     20       0.000    
    531      1     19     21       0.000    
    532      1     19     22       0.000    
    533      1     19     23       0.000    
    534      1     19     24       0.000    
    535      1     19     25       0.000    
    536      1     19     26       0.000    
    537      1     19     27       0.000    
    538      1     19     28       0.000    
    539      1     19     29       0.000    
    540      1     19     30       0.000    
    541      1     20      1       0.000    
    542      1     20      2       0.000    
    543      1     20      3       0.000    
    544      1     20      4       0.000    
    545      1     20      5       0.000    
    546      1     20      6       0.000    
    547      1     20      7       0.000    
    548      1     20      8       0.000    
    549      1     20      9       0.000    
    550      1     20     10       0.000    
    551      1     20     11       0.000    
    552      1     20     12       0.000    
    553      1     20     13       0.000    
    554      1     20     14       0.000    
    555      1     20     15       0.000    
    556      1     20     16       0.000    
    557      1     20     17       0.000    
    558      1     20     18       0.000    
    559      1     20     19       0.000    
    560      1     20     20       0.000    
    561      1     20     21       0.000    
    562      1     20     22       0.000    
    563      1     20     23       0.000    
    564      1     20     24       0.000    
    565      1     20     25       0.000    
    566      1     20     26       0.000    
    567      1     20     27       0.000    
    568      1     20     28       0.000    
    569      1     20     29       0.000    
    570      1     20     30       0.000    
    571      1     21      1       0.000    
    572      1     21      2       0.000    
    573      1     21      3       0.000    
    574      1     21      4       0.000    
    575      1     21      5       0.000    
    576      1     21      6       0.000    
    577      1     21      7       0.000    
    578      1     21      8       0.000    
    579      1     21      9       0.000    
    580      1     21     10       0.000    
    581      1     21     11       0.000    
    582      1     21     12       0.000    
    583      1     21     13       0.000    
    584      1     21     14       0.000    
    585      1     21     15       0.000    
    586      1     21     16       0.000    
    587      1     21     17       0.000    
    588      1     21     18       0.000    
    589      1     21     19       0.000    
    590      1     21     20       0.000    
    591      1     21     21       0.000    
    592      1     21     22       0.000    
    593      1     21     23       0.000    
    594      1     21     24       0.000    
    595      1     21     25       0.000    
    596      1     21     26       0.000    
    597      1     21     27       0.000    
    598      1     21     28       0.000    
    599      1     21     29       0.000    
    600      1     21     30       0.000    
    601      1     22      1       0.000    
    602      1     22      2       0.000    
    603      1     22      3       0.000    
    604      1     22      4       0.000    
    605      1     22      5       0.000    
    606      1     22      6       0.000    
    607      1     22      7       0.000    
    608      1     22      8       0.000    
    609      1     22      9       0.000    
    610      1     22     10       0.000    
    611      1     22     11       0.000    
    612      1     22     12       0.000    
    613      1     22     13       0.000    
    614      1     22     14       0.000    
    615      1     22     15       0.000    
    616      1     22     16       0.000    
    617      1     22     17       0.000    
    618      1     22     18       0.000    
    619      1     22     19       0.000    
    620      1     22     20       0.000    
    621      1     22     21       0.000    
    622      1     22     22       0.000    
    623      1     22     23       0.000    
    624      1     22     24       0.000    
    625      1     22     25       0.000    
    626      1     22     26       0.000    
    627      1     22     27       0.000    
    628      1     22     28       0.000    
    629      1     22     29       0.000    
    630      1     22     30       0.000    
    631      1     23      1       0.000    
    632      1     23      2       0.000    
    633      1     23      3       0.000    
    634      1     23      4       0.000    
    635      1     23      5       0.000    
    636      1     23      6       0.000    
    637      1     23      7       0.000    
    638      1     23      8       0.000    
    639      1     23      9       0.000    
    640      1     23     10       0.000    
    641      1     23     11       0.000    
    642      1     23     12       0.000    
    643      1     23     13       0.000    
    644      1     23     14       0.000    
    645      1     23     15       0.000    
    646      1     23     16       0.000    
    647      1     23     17       0.000    
    648      1     23     18       0.000    
    649      1     23     19       0.000    
    650      1     23     20       0.000    
    651      1     23     21       0.000    
    652      1     23     22       0.000    
    653      1     23     23       0.000    
    654      1     23     24       0.000    
    655      1     23     25       0.000    
    656      1     23     26       0.000    
    657      1     23     27       0.000    
    658      1     23     28       0.000    
    659      1     23     29       0.000    
    660      1     23     30       0.000    
    661      1     24      1       0.000    
    662      1     24      2       0.000    
    663      1     24      3       0.000    
    664      1     24      4       0.000    
    665      1     24      5       0.000    
    666      1     24      6       0.000    
    667      1     24      7       0.000    
    668      1     24      8       0.000    
    669      1     24      9       0.000    
    670      1     24     10       0.000    
    671      1     24     11       0.000    
    672      1     24     12       0.000    
    673      1     24     13       0.000    
    674      1     24     14       0.000    
    675      1     24     15       0.000    
    676      1     24     16       0.000    
    677      1     24     17       0.000    
    678      1     24     18       0.000    
    679      1     24     19       0.000    
    680      1     24     20       0.000    
    681      1     24     21       0.000    
    682      1     24     22       0.000    
    683      1     24     23       0.000    
    684      1     24     24       0.000    
    685      1     24     25       0.000    
    686      1     24     26       0.000    
    687      1     24     27       0.000    
    688      1     24     28       0.000    
    689      1     24     29       0.000    
    690      1     24     30       0.000    

    690 WELLS

                 RECHARGE =  5.000000E-04

 REUSING STREAM SEGMENT DATA FROM LAST STRESS PERIOD

 SOLVING FOR HEAD 


     5 CALLS TO PCG ROUTINE FOR TIME STEP   1 IN STRESS PERIOD    5
    17 TOTAL ITERATIONS

 OUTPUT CONTROL FOR STRESS PERIOD    5   TIME STEP    1
    SAVE HEAD FOR ALL LAYERS
    SAVE BUDGET



 STREAM LISTING     PERIOD      5   STEP        1

 LAYER ROW COL. STREAM  RCH.  FLOW INTO     FLOW TO   FLOW OUT OF   OVRLND.     DIRECT     STREAM       STREAM     STREAM     STREAM   STREAMBED  STREAMBED
                SEG.NO.  NO.  STRM. RCH.    AQUIFER    STRM. RCH.    RUNOFF     PRECIP       ET          HEAD       DEPTH      WIDTH   CONDCTNC.   GRADIENT

   1   13    1     1     1    1.0000E+05 -2.7713E+04   1.2771E+05  0.000E+00  0.000E+00  0.000E+00  4.84177E+01  1.564E-01  2.000E+01  2.000E+04 -1.386E+00
   1   13    2     1     2    1.2771E+05 -3.7436E+04   1.6515E+05  0.000E+00  0.000E+00  0.000E+00  4.79659E+01  1.818E-01  2.000E+01  2.000E+04 -1.872E+00
   1   14    3     1     3    1.6515E+05 -3.2916E+04   1.9806E+05  0.000E+00  0.000E+00  0.000E+00  4.75137E+01  2.069E-01  2.000E+01  2.000E+04 -1.646E+00
   1   15    4     1     4    1.9806E+05 -3.2159E+04   2.3022E+05  0.000E+00  0.000E+00  0.000E+00  4.70580E+01  2.284E-01  2.000E+01  2.000E+04 -1.608E+00
   1   16    5     1     5    2.3022E+05 -3.3694E+04   2.6392E+05  0.000E+00  0.000E+00  0.000E+00  4.66012E+01  2.489E-01  2.000E+01  2.000E+04 -1.685E+00
   1   16    6     1     6    2.6392E+05 -2.9451E+04   2.9337E+05  0.000E+00  0.000E+00  0.000E+00  4.61425E+01  2.675E-01  2.000E+01  2.000E+04 -1.473E+00
   1   16    7     1     7    2.9337E+05 -2.9286E+04   3.2265E+05  0.000E+00  0.000E+00  0.000E+00  4.56818E+01  2.841E-01  2.000E+01  2.000E+04 -1.464E+00
   1   16    8     1     8    3.2265E+05 -2.9483E+04   3.5214E+05  0.000E+00  0.000E+00  0.000E+00  4.52205E+01  3.001E-01  2.000E+01  2.000E+04 -1.474E+00
   1   16    9     1     9    3.5214E+05 -2.9582E+04   3.8172E+05  0.000E+00  0.000E+00  0.000E+00  4.47587E+01  3.156E-01  2.000E+01  2.000E+04 -1.479E+00
   1   16   10     1    10    3.8172E+05 -2.9632E+04   4.1135E+05  0.000E+00  0.000E+00  0.000E+00  4.42965E+01  3.306E-01  2.000E+01  2.000E+04 -1.482E+00
   1   16   11     1    11    4.1135E+05 -3.0263E+04   4.4161E+05  0.000E+00  0.000E+00  0.000E+00  4.38340E+01  3.454E-01  2.000E+01  2.000E+04 -1.513E+00
   1   16   12     1    12    4.4161E+05 -3.5816E+04   4.7743E+05  0.000E+00  0.000E+00  0.000E+00  4.33725E+01  3.612E-01  2.000E+01  2.000E+04 -1.791E+00
   1   15   13     1    13    4.7743E+05 -3.4557E+04   5.1199E+05  0.000E+00  0.000E+00  0.000E+00  4.29116E+01  3.775E-01  2.000E+01  2.000E+04 -1.728E+00
   1   14   14     1    14    5.1199E+05 -3.5147E+04   5.4713E+05  0.000E+00  0.000E+00  0.000E+00  4.24501E+01  3.933E-01  2.000E+01  2.000E+04 -1.757E+00
   1   13   15     1    15    5.4713E+05 -3.7369E+04   5.8450E+05  0.000E+00  0.000E+00  0.000E+00  4.19887E+01  4.092E-01  2.000E+01  2.000E+04 -1.868E+00
   1   12   16     1    16    5.8450E+05 -4.3407E+04   6.2791E+05  0.000E+00  0.000E+00  0.000E+00  4.15288E+01  4.265E-01  2.000E+01  2.000E+04 -2.170E+00
   1   12   17     1    17    6.2791E+05 -3.3967E+04   6.6188E+05  0.000E+00  0.000E+00  0.000E+00  4.10676E+01  4.426E-01  2.000E+01  2.000E+04 -1.698E+00
   1   12   18     1    18    6.6188E+05 -3.2355E+04   6.9423E+05  0.000E+00  0.000E+00  0.000E+00  4.06039E+01  4.561E-01  2.000E+01  2.000E+04 -1.618E+00
   1   12   19     1    19    6.9423E+05 -3.6429E+04   7.3066E+05  0.000E+00  0.000E+00  0.000E+00  4.01403E+01  4.699E-01  2.000E+01  2.000E+04 -1.821E+00
   1   13   20     1    20    7.3066E+05 -2.6754E+04   7.5741E+05  0.000E+00  0.000E+00  0.000E+00  3.96754E+01  4.823E-01  2.000E+01  2.000E+04 -1.338E+00
   1   14   21     1    21    7.5741E+05 -1.9691E+04   7.7710E+05  0.000E+00  0.000E+00  0.000E+00  3.92071E+01  4.912E-01  2.000E+01  2.000E+04 -9.845E-01
   1   14   22     1    22    7.7710E+05 -1.7309E+03   7.7883E+05  0.000E+00  0.000E+00  0.000E+00  3.87340E+01  4.953E-01  2.000E+01  2.000E+04 -8.654E-02
   1    9   30     2     1    5.0000E+04 -2.6496E+04   7.6496E+04  0.000E+00  0.000E+00  0.000E+00  4.02584E+01  1.334E-01  2.000E+01  2.000E+04 -1.325E+00
   1    9   29     2     2    7.6496E+04 -2.8964E+04   1.0546E+05  0.000E+00  0.000E+00  0.000E+00  4.00409E+01  1.659E-01  2.000E+01  2.000E+04 -1.448E+00
   1    9   28     2     3    1.0546E+05 -3.3253E+04   1.3871E+05  0.000E+00  0.000E+00  0.000E+00  3.98230E+01  1.980E-01  2.000E+01  2.000E+04 -1.663E+00
   1    9   27     2     4    1.3871E+05 -4.7372E+04   1.8608E+05  0.000E+00  0.000E+00  0.000E+00  3.96099E+01  2.349E-01  2.000E+01  2.000E+04 -2.369E+00
   1   10   26     2     5    1.8608E+05 -3.3351E+04   2.1944E+05  0.000E+00  0.000E+00  0.000E+00  3.93934E+01  2.684E-01  2.000E+01  2.000E+04 -1.668E+00
   1   11   25     2     6    2.1944E+05 -2.5018E+04   2.4445E+05  0.000E+00  0.000E+00  0.000E+00  3.91659E+01  2.909E-01  2.000E+01  2.000E+04 -1.251E+00
   1   12   24     2     7    2.4445E+05 -1.8469E+04   2.6292E+05  0.000E+00  0.000E+00  0.000E+00  3.89320E+01  3.070E-01  2.000E+01  2.000E+04 -9.234E-01
   1   13   23     2     8    2.6292E+05 -1.3144E+04   2.7607E+05  0.000E+00  0.000E+00  0.000E+00  3.86933E+01  3.183E-01  2.000E+01  2.000E+04 -6.572E-01
   1   14   22     2     9    2.7607E+05 -7.3989E+03   2.8347E+05  0.000E+00  0.000E+00  0.000E+00  3.84506E+01  3.256E-01  2.000E+01  2.000E+04 -3.699E-01
   1   14   22     3     1    1.0623E+06 -1.5346E+04   1.0776E+06  0.000E+00  0.000E+00  0.000E+00  3.80532E+01  4.976E-01  2.000E+01  2.000E+04 -7.673E-01
   1   15   23     3     2    1.0776E+06 -2.3669E+04   1.1013E+06  0.000E+00  0.000E+00  0.000E+00  3.71697E+01  5.031E-01  2.000E+01  2.000E+04 -1.183E+00
   1   15   24     3     3    1.1013E+06 -1.9699E+04   1.1210E+06  0.000E+00  0.000E+00  0.000E+00  3.62868E+01  5.091E-01  2.000E+01  2.000E+04 -9.849E-01
   1   15   25     3     4    1.1210E+06 -1.9289E+04   1.1403E+06  0.000E+00  0.000E+00  0.000E+00  3.54033E+01  5.144E-01  2.000E+01  2.000E+04 -9.645E-01
   1   15   26     3     5    1.1403E+06 -2.2031E+04   1.1623E+06  0.000E+00  0.000E+00  0.000E+00  3.45200E+01  5.200E-01  2.000E+01  2.000E+04 -1.102E+00
   1   16   27     3     6    1.1623E+06 -2.9197E+04   1.1915E+06  0.000E+00  0.000E+00  0.000E+00  3.36380E+01  5.269E-01  2.000E+01  2.000E+04 -1.460E+00
   1   17   28     3     7    1.1915E+06 -3.6255E+04   1.2278E+06  0.000E+00  0.000E+00  0.000E+00  3.27579E+01  5.357E-01  2.000E+01  2.000E+04 -1.813E+00
   1   18   29     3     8    1.2278E+06 -4.7252E+04   1.2750E+06  0.000E+00  0.000E+00  0.000E+00  3.18800E+01  5.467E-01  2.000E+01  2.000E+04 -2.363E+00
   1   18   30     3     9    1.2750E+06 -4.3684E+04   1.3187E+06  0.000E+00  0.000E+00  0.000E+00  3.10030E+01  5.585E-01  2.000E+01  2.000E+04 -2.184E+00




 HEAD WILL BE SAVED ON UNIT   51 AT END OF TIME STEP    1, STRESS PERIOD    5
1
  VOLUMETRIC BUDGET FOR ENTIRE MODEL AT END OF TIME STEP    1, STRESS PERIOD   5
  ------------------------------------------------------------------------------

     CUMULATIVE VOLUMES      L**3       RATES FOR THIS TIME STEP      L**3/T
     ------------------                 ------------------------

           IN:                                      IN:
           ---                                      ---
             STORAGE =    19846392.0000               STORAGE =         585.8514
       CONSTANT HEAD =   520128256.0000         CONSTANT HEAD =     1154335.7500
               WELLS =           0.0000                 WELLS =           0.0000
            RECHARGE =    10074000.0000              RECHARGE =       13800.0000
      STREAM LEAKAGE =           0.0000        STREAM LEAKAGE =           0.0000

            TOTAL IN =   550048640.0000              TOTAL IN =     1168721.6250

          OUT:                                     OUT:
          ----                                     ----
             STORAGE =      103379.5078               STORAGE =           0.0000
       CONSTANT HEAD =           0.0000         CONSTANT HEAD =           0.0000
               WELLS =           0.0000                 WELLS =           0.0000
            RECHARGE =           0.0000              RECHARGE =           0.0000
      STREAM LEAKAGE =   549945408.0000        STREAM LEAKAGE =     1168723.2500

           TOTAL OUT =   550048768.0000             TOTAL OUT =     1168723.2500

            IN - OUT =        -128.0000              IN - OUT =          -1.6250

 PERCENT DISCREPANCY =          -0.00     PERCENT DISCREPANCY =          -0.00






         TIME SUMMARY AT END OF TIME STEP    1 IN STRESS PERIOD    5
                    SECONDS     MINUTES      HOURS       DAYS        YEARS
                    -----------------------------------------------------------
   TIME STEP LENGTH 7.94880E+06 1.32480E+05  2208.0      92.000     0.25188    
 STRESS PERIOD TIME 7.94880E+06 1.32480E+05  2208.0      92.000     0.25188    
         TOTAL TIME 3.94848E+07 6.58080E+05  10968.      457.00      1.2512    
1
1
                            STRESS PERIOD NO.    6, LENGTH =   91.00000    
                            -----------------------------------------------

                              NUMBER OF TIME STEPS =     1

                               MULTIPLIER FOR DELT =     1.500

                            INITIAL TIME STEP SIZE =   91.00000    

 WELL NO.  LAYER   ROW   COL   STRESS RATE         
 --------------------------------------------------
      1      1      2      1       0.000    
      2      1      2      2       0.000    
      3      1      2      3       0.000    
      4      1      2      4       0.000    
      5      1      2      5       0.000    
      6      1      2      6       0.000    
      7      1      2      7       0.000    
      8      1      2      8       0.000    
      9      1      2      9       0.000    
     10      1      2     10       0.000    
     11      1      2     11       0.000    
     12      1      2     12       0.000    
     13      1      2     13       0.000    
     14      1      2     14       0.000    
     15      1      2     15       0.000    
     16      1      2     16       0.000    
     17      1      2     17       0.000    
     18      1      2     18       0.000    
     19      1      2     19       0.000    
     20      1      2     20       0.000    
     21      1      2     21       0.000    
     22      1      2     22       0.000    
     23      1      2     23       0.000    
     24      1      2     24       0.000    
     25      1      2     25       0.000    
     26      1      2     26       0.000    
     27      1      2     27       0.000    
     28      1      2     28       0.000    
     29      1      2     29       0.000    
     30      1      2     30       0.000    
     31      1      3      1       0.000    
     32      1      3      2       0.000    
     33      1      3      3       0.000    
     34      1      3      4       0.000    
     35      1      3      5       0.000    
     36      1      3      6       0.000    
     37      1      3      7       0.000    
     38      1      3      8       0.000    
     39      1      3      9       0.000    
     40      1      3     10       0.000    
     41      1      3     11       0.000    
     42      1      3     12       0.000    
     43      1      3     13       0.000    
     44      1      3     14       0.000    
     45      1      3     15       0.000    
     46      1      3     16       0.000    
     47      1      3     17       0.000    
     48      1      3     18       0.000    
     49      1      3     19       0.000    
     50      1      3     20       0.000    
     51      1      3     21       0.000    
     52      1      3     22       0.000    
     53      1      3     23       0.000    
     54      1      3     24       0.000    
     55      1      3     25       0.000    
     56      1      3     26       0.000    
     57      1      3     27       0.000    
     58      1      3     28       0.000    
     59      1      3     29       0.000    
     60      1      3     30       0.000    
     61      1      4      1       0.000    
     62      1      4      2       0.000    
     63      1      4      3       0.000    
     64      1      4      4       0.000    
     65      1      4      5       0.000    
     66      1      4      6       0.000    
     67      1      4      7       0.000    
     68      1      4      8       0.000    
     69      1      4      9       0.000    
     70      1      4     10       0.000    
     71      1      4     11       0.000    
     72      1      4     12       0.000    
     73      1      4     13       0.000    
     74      1      4     14       0.000    
     75      1      4     15       0.000    
     76      1      4     16       0.000    
     77      1      4     17       0.000    
     78      1      4     18       0.000    
     79      1      4     19       0.000    
     80      1      4     20       0.000    
     81      1      4     21       0.000    
     82      1      4     22       0.000    
     83      1      4     23       0.000    
     84      1      4     24       0.000    
     85      1      4     25       0.000    
     86      1      4     26       0.000    
     87      1      4     27       0.000    
     88      1      4     28       0.000    
     89      1      4     29       0.000    
     90      1      4     30       0.000    
     91      1      5      1       0.000    
     92      1      5      2       0.000    
     93      1      5      3       0.000    
     94      1      5      4       0.000    
     95      1      5      5       0.000    
     96      1      5      6       0.000    
     97      1      5      7       0.000    
     98      1      5      8       0.000    
     99      1      5      9       0.000    
    100      1      5     10       0.000    
    101      1      5     11       0.000    
    102      1      5     12       0.000    
    103      1      5     13       0.000    
    104      1      5     14       0.000    
    105      1      5     15       0.000    
    106      1      5     16       0.000    
    107      1      5     17       0.000    
    108      1      5     18       0.000    
    109      1      5     19       0.000    
    110      1      5     20       0.000    
    111      1      5     21       0.000    
    112      1      5     22       0.000    
    113      1      5     23       0.000    
    114      1      5     24       0.000    
    115      1      5     25       0.000    
    116      1      5     26       0.000    
    117      1      5     27       0.000    
    118      1      5     28       0.000    
    119      1      5     29       0.000    
    120      1      5     30       0.000    
    121      1      6      1       0.000    
    122      1      6      2       0.000    
    123      1      6      3       0.000    
    124      1      6      4       0.000    
    125      1      6      5       0.000    
    126      1      6      6       0.000    
    127      1      6      7       0.000    
    128      1      6      8       0.000    
    129      1      6      9       0.000    
    130      1      6     10       0.000    
    131      1      6     11       0.000    
    132      1      6     12       0.000    
    133      1      6     13       0.000    
    134      1      6     14       0.000    
    135      1      6     15       0.000    
    136      1      6     16       0.000    
    137      1      6     17       0.000    
    138      1      6     18       0.000    
    139      1      6     19       0.000    
    140      1      6     20       0.000    
    141      1      6     21       0.000    
    142      1      6     22       0.000    
    143      1      6     23       0.000    
    144      1      6     24       0.000    
    145      1      6     25       0.000    
    146      1      6     26       0.000    
    147      1      6     27       0.000    
    148      1      6     28       0.000    
    149      1      6     29       0.000    
    150      1      6     30       0.000    
    151      1      7      1       0.000    
    152      1      7      2       0.000    
    153      1      7      3       0.000    
    154      1      7      4       0.000    
    155      1      7      5       0.000    
    156      1      7      6       0.000    
    157      1      7      7       0.000    
    158      1      7      8       0.000    
    159      1      7      9       0.000    
    160      1      7     10       0.000    
    161      1      7     11       0.000    
    162      1      7     12       0.000    
    163      1      7     13       0.000    
    164      1      7     14       0.000    
    165      1      7     15       0.000    
    166      1      7     16       0.000    
    167      1      7     17       0.000    
    168      1      7     18       0.000    
    169      1      7     19       0.000    
    170      1      7     20       0.000    
    171      1      7     21       0.000    
    172      1      7     22       0.000    
    173      1      7     23       0.000    
    174      1      7     24       0.000    
    175      1      7     25       0.000    
    176      1      7     26       0.000    
    177      1      7     27       0.000    
    178      1      7     28       0.000    
    179      1      7     29       0.000    
    180      1      7     30       0.000    
    181      1      8      1       0.000    
    182      1      8      2       0.000    
    183      1      8      3       0.000    
    184      1      8      4       0.000    
    185      1      8      5       0.000    
    186      1      8      6       0.000    
    187      1      8      7       0.000    
    188      1      8      8       0.000    
    189      1      8      9       0.000    
    190      1      8     10       0.000    
    191      1      8     11       0.000    
    192      1      8     12       0.000    
    193      1      8     13       0.000    
    194      1      8     14       0.000    
    195      1      8     15       0.000    
    196      1      8     16       0.000    
    197      1      8     17       0.000    
    198      1      8     18       0.000    
    199      1      8     19       0.000    
    200      1      8     20       0.000    
    201      1      8     21       0.000    
    202      1      8     22       0.000    
    203      1      8     23       0.000    
    204      1      8     24       0.000    
    205      1      8     25       0.000    
    206      1      8     26       0.000    
    207      1      8     27       0.000    
    208      1      8     28       0.000    
    209      1      8     29       0.000    
    210      1      8     30       0.000    
    211      1      9      1       0.000    
    212      1      9      2       0.000    
    213      1      9      3       0.000    
    214      1      9      4       0.000    
    215      1      9      5       0.000    
    216      1      9      6       0.000    
    217      1      9      7       0.000    
    218      1      9      8       0.000    
    219      1      9      9       0.000    
    220      1      9     10       0.000    
    221      1      9     11       0.000    
    222      1      9     12       0.000    
    223      1      9     13       0.000    
    224      1      9     14       0.000    
    225      1      9     15       0.000    
    226      1      9     16       0.000    
    227      1      9     17       0.000    
    228      1      9     18       0.000    
    229      1      9     19       0.000    
    230      1      9     20       0.000    
    231      1      9     21       0.000    
    232      1      9     22       0.000    
    233      1      9     23       0.000    
    234      1      9     24       0.000    
    235      1      9     25       0.000    
    236      1      9     26       0.000    
    237      1      9     27       0.000    
    238      1      9     28       0.000    
    239      1      9     29       0.000    
    240      1      9     30       0.000    
    241      1     10      1       0.000    
    242      1     10      2       0.000    
    243      1     10      3       0.000    
    244      1     10      4       0.000    
    245      1     10      5       0.000    
    246      1     10      6       0.000    
    247      1     10      7       0.000    
    248      1     10      8       0.000    
    249      1     10      9       0.000    
    250      1     10     10       0.000    
    251      1     10     11       0.000    
    252      1     10     12       0.000    
    253      1     10     13       0.000    
    254      1     10     14       0.000    
    255      1     10     15       0.000    
    256      1     10     16       0.000    
    257      1     10     17       0.000    
    258      1     10     18       0.000    
    259      1     10     19       0.000    
    260      1     10     20       0.000    
    261      1     10     21       0.000    
    262      1     10     22       0.000    
    263      1     10     23       0.000    
    264      1     10     24       0.000    
    265      1     10     25       0.000    
    266      1     10     26       0.000    
    267      1     10     27       0.000    
    268      1     10     28       0.000    
    269      1     10     29       0.000    
    270      1     10     30       0.000    
    271      1     11      1       0.000    
    272      1     11      2       0.000    
    273      1     11      3       0.000    
    274      1     11      4       0.000    
    275      1     11      5       0.000    
    276      1     11      6       0.000    
    277      1     11      7       0.000    
    278      1     11      8       0.000    
    279      1     11      9       0.000    
    280      1     11     10       0.000    
    281      1     11     11       0.000    
    282      1     11     12       0.000    
    283      1     11     13       0.000    
    284      1     11     14       0.000    
    285      1     11     15       0.000    
    286      1     11     16       0.000    
    287      1     11     17       0.000    
    288      1     11     18       0.000    
    289      1     11     19       0.000    
    290      1     11     20       0.000    
    291      1     11     21       0.000    
    292      1     11     22       0.000    
    293      1     11     23       0.000    
    294      1     11     24       0.000    
    295      1     11     25       0.000    
    296      1     11     26       0.000    
    297      1     11     27       0.000    
    298      1     11     28       0.000    
    299      1     11     29       0.000    
    300      1     11     30       0.000    
    301      1     12      1       0.000    
    302      1     12      2       0.000    
    303      1     12      3       0.000    
    304      1     12      4       0.000    
    305      1     12      5       0.000    
    306      1     12      6       0.000    
    307      1     12      7       0.000    
    308      1     12      8       0.000    
    309      1     12      9       0.000    
    310      1     12     10       0.000    
    311      1     12     11       0.000    
    312      1     12     12       0.000    
    313      1     12     13       0.000    
    314      1     12     14       0.000    
    315      1     12     15       0.000    
    316      1     12     16       0.000    
    317      1     12     17       0.000    
    318      1     12     18       0.000    
    319      1     12     19       0.000    
    320      1     12     20       0.000    
    321      1     12     21       0.000    
    322      1     12     22       0.000    
    323      1     12     23       0.000    
    324      1     12     24       0.000    
    325      1     12     25       0.000    
    326      1     12     26       0.000    
    327      1     12     27       0.000    
    328      1     12     28       0.000    
    329      1     12     29       0.000    
    330      1     12     30       0.000    
    331      1     13      1       0.000    
    332      1     13      2       0.000    
    333      1     13      3       0.000    
    334      1     13      4       0.000    
    335      1     13      5       0.000    
    336      1     13      6       0.000    
    337      1     13      7       0.000    
    338      1     13      8       0.000    
    339      1     13      9       0.000    
    340      1     13     10       0.000    
    341      1     13     11       0.000    
    342      1     13     12       0.000    
    343      1     13     13       0.000    
    344      1     13     14       0.000    
    345      1     13     15       0.000    
    346      1     13     16       0.000    
    347      1     13     17       0.000    
    348      1     13     18       0.000    
    349      1     13     19       0.000    
    350      1     13     20       0.000    
    351      1     13     21       0.000    
    352      1     13     22       0.000    
    353      1     13     23       0.000    
    354      1     13     24       0.000    
    355      1     13     25       0.000    
    356      1     13     26       0.000    
    357      1     13     27       0.000    
    358      1     13     28       0.000    
    359      1     13     29       0.000    
    360      1     13     30       0.000    
    361      1     14      1       0.000    
    362      1     14      2       0.000    
    363      1     14      3       0.000    
    364      1     14      4       0.000    
    365      1     14      5       0.000    
    366      1     14      6       0.000    
    367      1     14      7       0.000    
    368      1     14      8       0.000    
    369      1     14      9       0.000    
    370      1     14     10       0.000    
    371      1     14     11       0.000    
    372      1     14     12       0.000    
    373      1     14     13       0.000    
    374      1     14     14       0.000    
    375      1     14     15       0.000    
    376      1     14     16       0.000    
    377      1     14     17       0.000    
    378      1     14     18       0.000    
    379      1     14     19       0.000    
    380      1     14     20       0.000    
    381      1     14     21       0.000    
    382      1     14     22       0.000    
    383      1     14     23       0.000    
    384      1     14     24       0.000    
    385      1     14     25       0.000    
    386      1     14     26       0.000    
    387      1     14     27       0.000    
    388      1     14     28       0.000    
    389      1     14     29       0.000    
    390      1     14     30       0.000    
    391      1     15      1       0.000    
    392      1     15      2       0.000    
    393      1     15      3       0.000    
    394      1     15      4       0.000    
    395      1     15      5       0.000    
    396      1     15      6       0.000    
    397      1     15      7       0.000    
    398      1     15      8       0.000    
    399      1     15      9       0.000    
    400      1     15     10       0.000    
    401      1     15     11       0.000    
    402      1     15     12       0.000    
    403      1     15     13       0.000    
    404      1     15     14       0.000    
    405      1     15     15       0.000    
    406      1     15     16       0.000    
    407      1     15     17       0.000    
    408      1     15     18       0.000    
    409      1     15     19       0.000    
    410      1     15     20       0.000    
    411      1     15     21       0.000    
    412      1     15     22       0.000    
    413      1     15     23       0.000    
    414      1     15     24       0.000    
    415      1     15     25       0.000    
    416      1     15     26       0.000    
    417      1     15     27       0.000    
    418      1     15     28       0.000    
    419      1     15     29       0.000    
    420      1     15     30       0.000    
    421      1     16      1       0.000    
    422      1     16      2       0.000    
    423      1     16      3       0.000    
    424      1     16      4       0.000    
    425      1     16      5       0.000    
    426      1     16      6       0.000    
    427      1     16      7       0.000    
    428      1     16      8       0.000    
    429      1     16      9       0.000    
    430      1     16     10       0.000    
    431      1     16     11       0.000    
    432      1     16     12       0.000    
    433      1     16     13       0.000    
    434      1     16     14       0.000    
    435      1     16     15       0.000    
    436      1     16     16       0.000    
    437      1     16     17       0.000    
    438      1     16     18       0.000    
    439      1     16     19       0.000    
    440      1     16     20       0.000    
    441      1     16     21       0.000    
    442      1     16     22       0.000    
    443      1     16     23       0.000    
    444      1     16     24       0.000    
    445      1     16     25       0.000    
    446      1     16     26       0.000    
    447      1     16     27       0.000    
    448      1     16     28       0.000    
    449      1     16     29       0.000    
    450      1     16     30       0.000    
    451      1     17      1       0.000    
    452      1     17      2       0.000    
    453      1     17      3       0.000    
    454      1     17      4       0.000    
    455      1     17      5       0.000    
    456      1     17      6       0.000    
    457      1     17      7       0.000    
    458      1     17      8       0.000    
    459      1     17      9       0.000    
    460      1     17     10       0.000    
    461      1     17     11       0.000    
    462      1     17     12       0.000    
    463      1     17     13       0.000    
    464      1     17     14       0.000    
    465      1     17     15       0.000    
    466      1     17     16       0.000    
    467      1     17     17       0.000    
    468      1     17     18       0.000    
    469      1     17     19       0.000    
    470      1     17     20       0.000    
    471      1     17     21       0.000    
    472      1     17     22       0.000    
    473      1     17     23       0.000    
    474      1     17     24       0.000    
    475      1     17     25       0.000    
    476      1     17     26       0.000    
    477      1     17     27       0.000    
    478      1     17     28       0.000    
    479      1     17     29       0.000    
    480      1     17     30       0.000    
    481      1     18      1       0.000    
    482      1     18      2       0.000    
    483      1     18      3       0.000    
    484      1     18      4       0.000    
    485      1     18      5       0.000    
    486      1     18      6       0.000    
    487      1     18      7       0.000    
    488      1     18      8       0.000    
    489      1     18      9       0.000    
    490      1     18     10       0.000    
    491      1     18     11       0.000    
    492      1     18     12       0.000    
    493      1     18     13       0.000    
    494      1     18     14       0.000    
    495      1     18     15       0.000    
    496      1     18     16       0.000    
    497      1     18     17       0.000    
    498      1     18     18       0.000    
    499      1     18     19       0.000    
    500      1     18     20       0.000    
    501      1     18     21       0.000    
    502      1     18     22       0.000    
    503      1     18     23       0.000    
    504      1     18     24       0.000    
    505      1     18     25       0.000    
    506      1     18     26       0.000    
    507      1     18     27       0.000    
    508      1     18     28       0.000    
    509      1     18     29       0.000    
    510      1     18     30       0.000    
    511      1     19      1       0.000    
    512      1     19      2       0.000    
    513      1     19      3       0.000    
    514      1     19      4       0.000    
    515      1     19      5       0.000    
    516      1     19      6       0.000    
    517      1     19      7       0.000    
    518      1     19      8       0.000    
    519      1     19      9       0.000    
    520      1     19     10       0.000    
    521      1     19     11       0.000    
    522      1     19     12       0.000    
    523      1     19     13       0.000    
    524      1     19     14       0.000    
    525      1     19     15       0.000    
    526      1     19     16       0.000    
    527      1     19     17       0.000    
    528      1     19     18       0.000    
    529      1     19     19       0.000    
    530      1     19     20       0.000    
    531      1     19     21       0.000    
    532      1     19     22       0.000    
    533      1     19     23       0.000    
    534      1     19     24       0.000    
    535      1     19     25       0.000    
    536      1     19     26       0.000    
    537      1     19     27       0.000    
    538      1     19     28       0.000    
    539      1     19     29       0.000    
    540      1     19     30       0.000    
    541      1     20      1       0.000    
    542      1     20      2       0.000    
    543      1     20      3       0.000    
    544      1     20      4       0.000    
    545      1     20      5       0.000    
    546      1     20      6       0.000    
    547      1     20      7       0.000    
    548      1     20      8       0.000    
    549      1     20      9       0.000    
    550      1     20     10       0.000    
    551      1     20     11       0.000    
    552      1     20     12       0.000    
    553      1     20     13       0.000    
    554      1     20     14       0.000    
    555      1     20     15       0.000    
    556      1     20     16       0.000    
    557      1     20     17       0.000    
    558      1     20     18       0.000    
    559      1     20     19       0.000    
    560      1     20     20       0.000    
    561      1     20     21       0.000    
    562      1     20     22       0.000    
    563      1     20     23       0.000    
    564      1     20     24       0.000    
    565      1     20     25       0.000    
    566      1     20     26       0.000    
    567      1     20     27       0.000    
    568      1     20     28       0.000    
    569      1     20     29       0.000    
    570      1     20     30       0.000    
    571      1     21      1       0.000    
    572      1     21      2       0.000    
    573      1     21      3       0.000    
    574      1     21      4       0.000    
    575      1     21      5       0.000    
    576      1     21      6       0.000    
    577      1     21      7       0.000    
    578      1     21      8       0.000    
    579      1     21      9       0.000    
    580      1     21     10       0.000    
    581      1     21     11       0.000    
    582      1     21     12       0.000    
    583      1     21     13       0.000    
    584      1     21     14       0.000    
    585      1     21     15       0.000    
    586      1     21     16       0.000    
    587      1     21     17       0.000    
    588      1     21     18       0.000    
    589      1     21     19       0.000    
    590      1     21     20       0.000    
    591      1     21     21       0.000    
    592      1     21     22       0.000    
    593      1     21     23       0.000    
    594      1     21     24       0.000    
    595      1     21     25       0.000    
    596      1     21     26       0.000    
    597      1     21     27       0.000    
    598      1     21     28       0.000    
    599      1     21     29       0.000    
    600      1     21     30       0.000    
    601      1     22      1       0.000    
    602      1     22      2       0.000    
    603      1     22      3       0.000    
    604      1     22      4       0.000    
    605      1     22      5       0.000    
    606      1     22      6       0.000    
    607      1     22      7       0.000    
    608      1     22      8       0.000    
    609      1     22      9       0.000    
    610      1     22     10       0.000    
    611      1     22     11       0.000    
    612      1     22     12       0.000    
    613      1     22     13       0.000    
    614      1     22     14       0.000    
    615      1     22     15       0.000    
    616      1     22     16       0.000    
    617      1     22     17       0.000    
    618      1     22     18       0.000    
    619      1     22     19       0.000    
    620      1     22     20       0.000    
    621      1     22     21       0.000    
    622      1     22     22       0.000    
    623      1     22     23       0.000    
    624      1     22     24       0.000    
    625      1     22     25       0.000    
    626      1     22     26       0.000    
    627      1     22     27       0.000    
    628      1     22     28       0.000    
    629      1     22     29       0.000    
    630      1     22     30       0.000    
    631      1     23      1       0.000    
    632      1     23      2       0.000    
    633      1     23      3       0.000    
    634      1     23      4       0.000    
    635      1     23      5       0.000    
    636      1     23      6       0.000    
    637      1     23      7       0.000    
    638      1     23      8       0.000    
    639      1     23      9       0.000    
    640      1     23     10       0.000    
    641      1     23     11       0.000    
    642      1     23     12       0.000    
    643      1     23     13       0.000    
    644      1     23     14       0.000    
    645      1     23     15       0.000    
    646      1     23     16       0.000    
    647      1     23     17       0.000    
    648      1     23     18       0.000    
    649      1     23     19       0.000    
    650      1     23     20       0.000    
    651      1     23     21       0.000    
    652      1     23     22       0.000    
    653      1     23     23       0.000    
    654      1     23     24       0.000    
    655      1     23     25       0.000    
    656      1     23     26       0.000    
    657      1     23     27       0.000    
    658      1     23     28       0.000    
    659      1     23     29       0.000    
    660      1     23     30       0.000    
    661      1     24      1       0.000    
    662      1     24      2       0.000    
    663      1     24      3       0.000    
    664      1     24      4       0.000    
    665      1     24      5       0.000    
    666      1     24      6       0.000    
    667      1     24      7       0.000    
    668      1     24      8       0.000    
    669      1     24      9       0.000    
    670      1     24     10       0.000    
    671      1     24     11       0.000    
    672      1     24     12       0.000    
    673      1     24     13       0.000    
    674      1     24     14       0.000    
    675      1     24     15       0.000    
    676      1     24     16       0.000    
    677      1     24     17       0.000    
    678      1     24     18       0.000    
    679      1     24     19       0.000    
    680      1     24     20       0.000    
    681      1     24     21       0.000    
    682      1     24     22       0.000    
    683      1     24     23       0.000    
    684      1     24     24       0.000    
    685      1     24     25       0.000    
    686      1     24     26       0.000    
    687      1     24     27       0.000    
    688      1     24     28       0.000    
    689      1     24     29       0.000    
    690      1     24     30       0.000    

    690 WELLS

                 RECHARGE =  2.000000E-03

 REUSING STREAM SEGMENT DATA FROM LAST STRESS PERIOD

 SOLVING FOR HEAD 


     5 CALLS TO PCG ROUTINE FOR TIME STEP   1 IN STRESS PERIOD    6
    18 TOTAL ITERATIONS

 OUTPUT CONTROL FOR STRESS PERIOD    6   TIME STEP    1
    SAVE HEAD FOR ALL LAYERS
    SAVE BUDGET



 STREAM LISTING     PERIOD      6   STEP        1

 LAYER ROW COL. STREAM  RCH.  FLOW INTO     FLOW TO   FLOW OUT OF   OVRLND.     DIRECT     STREAM       STREAM     STREAM     STREAM   STREAMBED  STREAMBED
                SEG.NO.  NO.  STRM. RCH.    AQUIFER    STRM. RCH.    RUNOFF     PRECIP       ET          HEAD       DEPTH      WIDTH   CONDCTNC.   GRADIENT

   1   13    1     1     1    1.0000E+05 -2.8365E+04   1.2836E+05  0.000E+00  0.000E+00  0.000E+00  4.84180E+01  1.566E-01  2.000E+01  2.000E+04 -1.418E+00
   1   13    2     1     2    1.2836E+05 -3.8215E+04   1.6658E+05  0.000E+00  0.000E+00  0.000E+00  4.79667E+01  1.826E-01  2.000E+01  2.000E+04 -1.911E+00
   1   14    3     1     3    1.6658E+05 -3.3678E+04   2.0026E+05  0.000E+00  0.000E+00  0.000E+00  4.75150E+01  2.082E-01  2.000E+01  2.000E+04 -1.684E+00
   1   15    4     1     4    2.0026E+05 -3.2892E+04   2.3315E+05  0.000E+00  0.000E+00  0.000E+00  4.70596E+01  2.301E-01  2.000E+01  2.000E+04 -1.645E+00
   1   16    5     1     5    2.3315E+05 -3.4355E+04   2.6750E+05  0.000E+00  0.000E+00  0.000E+00  4.66031E+01  2.509E-01  2.000E+01  2.000E+04 -1.718E+00
   1   16    6     1     6    2.6750E+05 -3.0025E+04   2.9753E+05  0.000E+00  0.000E+00  0.000E+00  4.61447E+01  2.697E-01  2.000E+01  2.000E+04 -1.501E+00
   1   16    7     1     7    2.9753E+05 -2.9855E+04   3.2739E+05  0.000E+00  0.000E+00  0.000E+00  4.56843E+01  2.865E-01  2.000E+01  2.000E+04 -1.493E+00
   1   16    8     1     8    3.2739E+05 -3.0054E+04   3.5744E+05  0.000E+00  0.000E+00  0.000E+00  4.52232E+01  3.027E-01  2.000E+01  2.000E+04 -1.503E+00
   1   16    9     1     9    3.5744E+05 -3.0152E+04   3.8759E+05  0.000E+00  0.000E+00  0.000E+00  4.47616E+01  3.184E-01  2.000E+01  2.000E+04 -1.508E+00
   1   16   10     1    10    3.8759E+05 -3.0200E+04   4.1779E+05  0.000E+00  0.000E+00  0.000E+00  4.42996E+01  3.337E-01  2.000E+01  2.000E+04 -1.510E+00
   1   16   11     1    11    4.1779E+05 -3.0840E+04   4.4863E+05  0.000E+00  0.000E+00  0.000E+00  4.38372E+01  3.486E-01  2.000E+01  2.000E+04 -1.542E+00
   1   16   12     1    12    4.4863E+05 -3.6487E+04   4.8512E+05  0.000E+00  0.000E+00  0.000E+00  4.33760E+01  3.646E-01  2.000E+01  2.000E+04 -1.824E+00
   1   15   13     1    13    4.8512E+05 -3.5299E+04   5.2042E+05  0.000E+00  0.000E+00  0.000E+00  4.29153E+01  3.812E-01  2.000E+01  2.000E+04 -1.765E+00
   1   14   14     1    14    5.2042E+05 -3.5913E+04   5.5633E+05  0.000E+00  0.000E+00  0.000E+00  4.24540E+01  3.972E-01  2.000E+01  2.000E+04 -1.796E+00
   1   13   15     1    15    5.5633E+05 -3.8129E+04   5.9446E+05  0.000E+00  0.000E+00  0.000E+00  4.19929E+01  4.133E-01  2.000E+01  2.000E+04 -1.906E+00
   1   12   16     1    16    5.9446E+05 -4.4141E+04   6.3860E+05  0.000E+00  0.000E+00  0.000E+00  4.15331E+01  4.308E-01  2.000E+01  2.000E+04 -2.207E+00
   1   12   17     1    17    6.3860E+05 -3.4558E+04   6.7316E+05  0.000E+00  0.000E+00  0.000E+00  4.10721E+01  4.471E-01  2.000E+01  2.000E+04 -1.728E+00
   1   12   18     1    18    6.7316E+05 -3.2919E+04   7.0608E+05  0.000E+00  0.000E+00  0.000E+00  4.06085E+01  4.608E-01  2.000E+01  2.000E+04 -1.646E+00
   1   12   19     1    19    7.0608E+05 -3.7046E+04   7.4312E+05  0.000E+00  0.000E+00  0.000E+00  4.01451E+01  4.747E-01  2.000E+01  2.000E+04 -1.852E+00
   1   13   20     1    20    7.4312E+05 -2.7330E+04   7.7045E+05  0.000E+00  0.000E+00  0.000E+00  3.96804E+01  4.872E-01  2.000E+01  2.000E+04 -1.367E+00
   1   14   21     1    21    7.7045E+05 -2.0187E+04   7.9064E+05  0.000E+00  0.000E+00  0.000E+00  3.92122E+01  4.963E-01  2.000E+01  2.000E+04 -1.009E+00
   1   14   22     1    22    7.9064E+05 -1.9054E+03   7.9255E+05  0.000E+00  0.000E+00  0.000E+00  3.87392E+01  5.005E-01  2.000E+01  2.000E+04 -9.527E-02
   1    9   30     2     1    5.0000E+04 -2.6941E+04   7.6941E+04  0.000E+00  0.000E+00  0.000E+00  4.02587E+01  1.337E-01  2.000E+01  2.000E+04 -1.347E+00
   1    9   29     2     2    7.6941E+04 -2.9409E+04   1.0635E+05  0.000E+00  0.000E+00  0.000E+00  4.00417E+01  1.667E-01  2.000E+01  2.000E+04 -1.470E+00
   1    9   28     2     3    1.0635E+05 -3.3713E+04   1.4006E+05  0.000E+00  0.000E+00  0.000E+00  3.98240E+01  1.990E-01  2.000E+01  2.000E+04 -1.686E+00
   1    9   27     2     4    1.4006E+05 -4.7936E+04   1.8800E+05  0.000E+00  0.000E+00  0.000E+00  3.96113E+01  2.363E-01  2.000E+01  2.000E+04 -2.397E+00
   1   10   26     2     5    1.8800E+05 -3.3937E+04   2.2194E+05  0.000E+00  0.000E+00  0.000E+00  3.93951E+01  2.701E-01  2.000E+01  2.000E+04 -1.697E+00
   1   11   25     2     6    2.2194E+05 -2.5582E+04   2.4752E+05  0.000E+00  0.000E+00  0.000E+00  3.91680E+01  2.930E-01  2.000E+01  2.000E+04 -1.279E+00
   1   12   24     2     7    2.4752E+05 -1.8974E+04   2.6649E+05  0.000E+00  0.000E+00  0.000E+00  3.89344E+01  3.094E-01  2.000E+01  2.000E+04 -9.487E-01
   1   13   23     2     8    2.6649E+05 -1.3554E+04   2.8005E+05  0.000E+00  0.000E+00  0.000E+00  3.86960E+01  3.210E-01  2.000E+01  2.000E+04 -6.777E-01
   1   14   22     2     9    2.8005E+05 -7.6202E+03   2.8767E+05  0.000E+00  0.000E+00  0.000E+00  3.84534E+01  3.284E-01  2.000E+01  2.000E+04 -3.810E-01
   1   14   22     3     1    1.0802E+06 -1.5524E+04   1.0957E+06  0.000E+00  0.000E+00  0.000E+00  3.80582E+01  5.027E-01  2.000E+01  2.000E+04 -7.762E-01
   1   15   23     3     2    1.0957E+06 -2.4131E+04   1.1199E+06  0.000E+00  0.000E+00  0.000E+00  3.71748E+01  5.081E-01  2.000E+01  2.000E+04 -1.207E+00
   1   15   24     3     3    1.1199E+06 -2.0080E+04   1.1399E+06  0.000E+00  0.000E+00  0.000E+00  3.62920E+01  5.142E-01  2.000E+01  2.000E+04 -1.004E+00
   1   15   25     3     4    1.1399E+06 -1.9668E+04   1.1596E+06  0.000E+00  0.000E+00  0.000E+00  3.54085E+01  5.196E-01  2.000E+01  2.000E+04 -9.834E-01
   1   15   26     3     5    1.1596E+06 -2.2472E+04   1.1821E+06  0.000E+00  0.000E+00  0.000E+00  3.45253E+01  5.253E-01  2.000E+01  2.000E+04 -1.124E+00
   1   16   27     3     6    1.1821E+06 -2.9729E+04   1.2118E+06  0.000E+00  0.000E+00  0.000E+00  3.36434E+01  5.323E-01  2.000E+01  2.000E+04 -1.486E+00
   1   17   28     3     7    1.2118E+06 -3.6801E+04   1.2486E+06  0.000E+00  0.000E+00  0.000E+00  3.27633E+01  5.411E-01  2.000E+01  2.000E+04 -1.840E+00
   1   18   29     3     8    1.2486E+06 -4.7765E+04   1.2964E+06  0.000E+00  0.000E+00  0.000E+00  3.18855E+01  5.522E-01  2.000E+01  2.000E+04 -2.388E+00
   1   18   30     3     9    1.2964E+06 -4.4111E+04   1.3405E+06  0.000E+00  0.000E+00  0.000E+00  3.10085E+01  5.641E-01  2.000E+01  2.000E+04 -2.206E+00




 HEAD WILL BE SAVED ON UNIT   51 AT END OF TIME STEP    1, STRESS PERIOD    6
1
  VOLUMETRIC BUDGET FOR ENTIRE MODEL AT END OF TIME STEP    1, STRESS PERIOD   6
  ------------------------------------------------------------------------------

     CUMULATIVE VOLUMES      L**3       RATES FOR THIS TIME STEP      L**3/T
     ------------------                 ------------------------

           IN:                                      IN:
           ---                                      ---
             STORAGE =    19846392.0000               STORAGE =           0.0000
       CONSTANT HEAD =   623616576.0000         CONSTANT HEAD =     1137234.1250
               WELLS =           0.0000                 WELLS =           0.0000
            RECHARGE =    15097200.0000              RECHARGE =       55200.0000
      STREAM LEAKAGE =           0.0000        STREAM LEAKAGE =           0.0000

            TOTAL IN =   658560192.0000              TOTAL IN =     1192434.1250

          OUT:                                     OUT:
          ----                                     ----
             STORAGE =      279714.9688               STORAGE =        1937.7524
       CONSTANT HEAD =           0.0000         CONSTANT HEAD =           0.0000
               WELLS =           0.0000                 WELLS =           0.0000
            RECHARGE =           0.0000              RECHARGE =           0.0000
      STREAM LEAKAGE =   658280448.0000        STREAM LEAKAGE =     1190495.2500

           TOTAL OUT =   658560192.0000             TOTAL OUT =     1192433.0000

            IN - OUT =           0.0000              IN - OUT =           1.1250

 PERCENT DISCREPANCY =           0.00     PERCENT DISCREPANCY =           0.00






         TIME SUMMARY AT END OF TIME STEP    1 IN STRESS PERIOD    6
                    SECONDS     MINUTES      HOURS       DAYS        YEARS
                    -----------------------------------------------------------
   TIME STEP LENGTH 7.86240E+06 1.31040E+05  2184.0      91.000     0.24914    
 STRESS PERIOD TIME 7.86240E+06 1.31040E+05  2184.0      91.000     0.24914    
         TOTAL TIME 4.73472E+07 7.89120E+05  13152.      548.00      1.5003    
1
1
                            STRESS PERIOD NO.    7, LENGTH =   91.00000    
                            -----------------------------------------------

                              NUMBER OF TIME STEPS =     1

                               MULTIPLIER FOR DELT =     1.500

                            INITIAL TIME STEP SIZE =   91.00000    

 WELL NO.  LAYER   ROW   COL   STRESS RATE         
 --------------------------------------------------
      1      1      2      1       0.000    
      2      1      2      2       0.000    
      3      1      2      3       0.000    
      4      1      2      4       0.000    
      5      1      2      5       0.000    
      6      1      2      6       0.000    
      7      1      2      7       0.000    
      8      1      2      8       0.000    
      9      1      2      9       0.000    
     10      1      2     10       0.000    
     11      1      2     11       0.000    
     12      1      2     12       0.000    
     13      1      2     13       0.000    
     14      1      2     14       0.000    
     15      1      2     15       0.000    
     16      1      2     16       0.000    
     17      1      2     17       0.000    
     18      1      2     18       0.000    
     19      1      2     19       0.000    
     20      1      2     20       0.000    
     21      1      2     21       0.000    
     22      1      2     22       0.000    
     23      1      2     23       0.000    
     24      1      2     24       0.000    
     25      1      2     25       0.000    
     26      1      2     26       0.000    
     27      1      2     27       0.000    
     28      1      2     28       0.000    
     29      1      2     29       0.000    
     30      1      2     30       0.000    
     31      1      3      1       0.000    
     32      1      3      2       0.000    
     33      1      3      3       0.000    
     34      1      3      4       0.000    
     35      1      3      5       0.000    
     36      1      3      6       0.000    
     37      1      3      7       0.000    
     38      1      3      8       0.000    
     39      1      3      9       0.000    
     40      1      3     10       0.000    
     41      1      3     11       0.000    
     42      1      3     12       0.000    
     43      1      3     13       0.000    
     44      1      3     14       0.000    
     45      1      3     15       0.000    
     46      1      3     16       0.000    
     47      1      3     17       0.000    
     48      1      3     18       0.000    
     49      1      3     19       0.000    
     50      1      3     20       0.000    
     51      1      3     21       0.000    
     52      1      3     22       0.000    
     53      1      3     23       0.000    
     54      1      3     24       0.000    
     55      1      3     25       0.000    
     56      1      3     26       0.000    
     57      1      3     27       0.000    
     58      1      3     28       0.000    
     59      1      3     29       0.000    
     60      1      3     30       0.000    
     61      1      4      1       0.000    
     62      1      4      2       0.000    
     63      1      4      3       0.000    
     64      1      4      4       0.000    
     65      1      4      5       0.000    
     66      1      4      6       0.000    
     67      1      4      7       0.000    
     68      1      4      8       0.000    
     69      1      4      9       0.000    
     70      1      4     10       0.000    
     71      1      4     11       0.000    
     72      1      4     12       0.000    
     73      1      4     13       0.000    
     74      1      4     14       0.000    
     75      1      4     15       0.000    
     76      1      4     16       0.000    
     77      1      4     17       0.000    
     78      1      4     18       0.000    
     79      1      4     19       0.000    
     80      1      4     20       0.000    
     81      1      4     21       0.000    
     82      1      4     22       0.000    
     83      1      4     23       0.000    
     84      1      4     24       0.000    
     85      1      4     25       0.000    
     86      1      4     26       0.000    
     87      1      4     27       0.000    
     88      1      4     28       0.000    
     89      1      4     29       0.000    
     90      1      4     30       0.000    
     91      1      5      1       0.000    
     92      1      5      2       0.000    
     93      1      5      3       0.000    
     94      1      5      4       0.000    
     95      1      5      5       0.000    
     96      1      5      6       0.000    
     97      1      5      7       0.000    
     98      1      5      8       0.000    
     99      1      5      9       0.000    
    100      1      5     10       0.000    
    101      1      5     11       0.000    
    102      1      5     12       0.000    
    103      1      5     13       0.000    
    104      1      5     14       0.000    
    105      1      5     15       0.000    
    106      1      5     16       0.000    
    107      1      5     17       0.000    
    108      1      5     18       0.000    
    109      1      5     19       0.000    
    110      1      5     20       0.000    
    111      1      5     21       0.000    
    112      1      5     22       0.000    
    113      1      5     23       0.000    
    114      1      5     24       0.000    
    115      1      5     25       0.000    
    116      1      5     26       0.000    
    117      1      5     27       0.000    
    118      1      5     28       0.000    
    119      1      5     29       0.000    
    120      1      5     30       0.000    
    121      1      6      1       0.000    
    122      1      6      2       0.000    
    123      1      6      3       0.000    
    124      1      6      4       0.000    
    125      1      6      5       0.000    
    126      1      6      6       0.000    
    127      1      6      7       0.000    
    128      1      6      8       0.000    
    129      1      6      9       0.000    
    130      1      6     10       0.000    
    131      1      6     11       0.000    
    132      1      6     12       0.000    
    133      1      6     13       0.000    
    134      1      6     14       0.000    
    135      1      6     15       0.000    
    136      1      6     16       0.000    
    137      1      6     17       0.000    
    138      1      6     18       0.000    
    139      1      6     19       0.000    
    140      1      6     20       0.000    
    141      1      6     21       0.000    
    142      1      6     22       0.000    
    143      1      6     23       0.000    
    144      1      6     24       0.000    
    145      1      6     25       0.000    
    146      1      6     26       0.000    
    147      1      6     27       0.000    
    148      1      6     28       0.000    
    149      1      6     29       0.000    
    150      1      6     30       0.000    
    151      1      7      1       0.000    
    152      1      7      2       0.000    
    153      1      7      3       0.000    
    154      1      7      4       0.000    
    155      1      7      5       0.000    
    156      1      7      6       0.000    
    157      1      7      7       0.000    
    158      1      7      8       0.000    
    159      1      7      9       0.000    
    160      1      7     10       0.000    
    161      1      7     11       0.000    
    162      1      7     12       0.000    
    163      1      7     13       0.000    
    164      1      7     14       0.000    
    165      1      7     15       0.000    
    166      1      7     16       0.000    
    167      1      7     17       0.000    
    168      1      7     18       0.000    
    169      1      7     19       0.000    
    170      1      7     20       0.000    
    171      1      7     21       0.000    
    172      1      7     22       0.000    
    173      1      7     23       0.000    
    174      1      7     24       0.000    
    175      1      7     25       0.000    
    176      1      7     26       0.000    
    177      1      7     27       0.000    
    178      1      7     28       0.000    
    179      1      7     29       0.000    
    180      1      7     30       0.000    
    181      1      8      1       0.000    
    182      1      8      2       0.000    
    183      1      8      3       0.000    
    184      1      8      4       0.000    
    185      1      8      5       0.000    
    186      1      8      6       0.000    
    187      1      8      7       0.000    
    188      1      8      8       0.000    
    189      1      8      9       0.000    
    190      1      8     10       0.000    
    191      1      8     11       0.000    
    192      1      8     12       0.000    
    193      1      8     13       0.000    
    194      1      8     14       0.000    
    195      1      8     15       0.000    
    196      1      8     16       0.000    
    197      1      8     17       0.000    
    198      1      8     18       0.000    
    199      1      8     19       0.000    
    200      1      8     20       0.000    
    201      1      8     21       0.000    
    202      1      8     22       0.000    
    203      1      8     23       0.000    
    204      1      8     24       0.000    
    205      1      8     25       0.000    
    206      1      8     26       0.000    
    207      1      8     27       0.000    
    208      1      8     28       0.000    
    209      1      8     29       0.000    
    210      1      8     30       0.000    
    211      1      9      1       0.000    
    212      1      9      2       0.000    
    213      1      9      3       0.000    
    214      1      9      4       0.000    
    215      1      9      5       0.000    
    216      1      9      6       0.000    
    217      1      9      7       0.000    
    218      1      9      8       0.000    
    219      1      9      9       0.000    
    220      1      9     10       0.000    
    221      1      9     11       0.000    
    222      1      9     12       0.000    
    223      1      9     13       0.000    
    224      1      9     14       0.000    
    225      1      9     15       0.000    
    226      1      9     16       0.000    
    227      1      9     17       0.000    
    228      1      9     18       0.000    
    229      1      9     19       0.000    
    230      1      9     20       0.000    
    231      1      9     21       0.000    
    232      1      9     22       0.000    
    233      1      9     23       0.000    
    234      1      9     24       0.000    
    235      1      9     25       0.000    
    236      1      9     26       0.000    
    237      1      9     27       0.000    
    238      1      9     28       0.000    
    239      1      9     29       0.000    
    240      1      9     30       0.000    
    241      1     10      1       0.000    
    242      1     10      2       0.000    
    243      1     10      3       0.000    
    244      1     10      4       0.000    
    245      1     10      5       0.000    
    246      1     10      6       0.000    
    247      1     10      7       0.000    
    248      1     10      8       0.000    
    249      1     10      9       0.000    
    250      1     10     10       0.000    
    251      1     10     11       0.000    
    252      1     10     12       0.000    
    253      1     10     13       0.000    
    254      1     10     14       0.000    
    255      1     10     15       0.000    
    256      1     10     16       0.000    
    257      1     10     17       0.000    
    258      1     10     18       0.000    
    259      1     10     19       0.000    
    260      1     10     20       0.000    
    261      1     10     21       0.000    
    262      1     10     22       0.000    
    263      1     10     23       0.000    
    264      1     10     24       0.000    
    265      1     10     25       0.000    
    266      1     10     26       0.000    
    267      1     10     27       0.000    
    268      1     10     28       0.000    
    269      1     10     29       0.000    
    270      1     10     30       0.000    
    271      1     11      1       0.000    
    272      1     11      2       0.000    
    273      1     11      3       0.000    
    274      1     11      4       0.000    
    275      1     11      5       0.000    
    276      1     11      6       0.000    
    277      1     11      7       0.000    
    278      1     11      8       0.000    
    279      1     11      9       0.000    
    280      1     11     10       0.000    
    281      1     11     11       0.000    
    282      1     11     12       0.000    
    283      1     11     13       0.000    
    284      1     11     14       0.000    
    285      1     11     15       0.000    
    286      1     11     16       0.000    
    287      1     11     17       0.000    
    288      1     11     18       0.000    
    289      1     11     19       0.000    
    290      1     11     20       0.000    
    291      1     11     21       0.000    
    292      1     11     22       0.000    
    293      1     11     23       0.000    
    294      1     11     24       0.000    
    295      1     11     25       0.000    
    296      1     11     26       0.000    
    297      1     11     27       0.000    
    298      1     11     28       0.000    
    299      1     11     29       0.000    
    300      1     11     30       0.000    
    301      1     12      1       0.000    
    302      1     12      2       0.000    
    303      1     12      3       0.000    
    304      1     12      4       0.000    
    305      1     12      5       0.000    
    306      1     12      6       0.000    
    307      1     12      7       0.000    
    308      1     12      8       0.000    
    309      1     12      9       0.000    
    310      1     12     10       0.000    
    311      1     12     11       0.000    
    312      1     12     12       0.000    
    313      1     12     13       0.000    
    314      1     12     14       0.000    
    315      1     12     15       0.000    
    316      1     12     16       0.000    
    317      1     12     17       0.000    
    318      1     12     18       0.000    
    319      1     12     19       0.000    
    320      1     12     20       0.000    
    321      1     12     21       0.000    
    322      1     12     22       0.000    
    323      1     12     23       0.000    
    324      1     12     24       0.000    
    325      1     12     25       0.000    
    326      1     12     26       0.000    
    327      1     12     27       0.000    
    328      1     12     28       0.000    
    329      1     12     29       0.000    
    330      1     12     30       0.000    
    331      1     13      1       0.000    
    332      1     13      2       0.000    
    333      1     13      3       0.000    
    334      1     13      4       0.000    
    335      1     13      5       0.000    
    336      1     13      6       0.000    
    337      1     13      7       0.000    
    338      1     13      8       0.000    
    339      1     13      9       0.000    
    340      1     13     10       0.000    
    341      1     13     11       0.000    
    342      1     13     12       0.000    
    343      1     13     13       0.000    
    344      1     13     14       0.000    
    345      1     13     15       0.000    
    346      1     13     16       0.000    
    347      1     13     17       0.000    
    348      1     13     18       0.000    
    349      1     13     19       0.000    
    350      1     13     20       0.000    
    351      1     13     21       0.000    
    352      1     13     22       0.000    
    353      1     13     23       0.000    
    354      1     13     24       0.000    
    355      1     13     25       0.000    
    356      1     13     26       0.000    
    357      1     13     27       0.000    
    358      1     13     28       0.000    
    359      1     13     29       0.000    
    360      1     13     30       0.000    
    361      1     14      1       0.000    
    362      1     14      2       0.000    
    363      1     14      3       0.000    
    364      1     14      4       0.000    
    365      1     14      5       0.000    
    366      1     14      6       0.000    
    367      1     14      7       0.000    
    368      1     14      8       0.000    
    369      1     14      9       0.000    
    370      1     14     10       0.000    
    371      1     14     11       0.000    
    372      1     14     12       0.000    
    373      1     14     13       0.000    
    374      1     14     14       0.000    
    375      1     14     15       0.000    
    376      1     14     16       0.000    
    377      1     14     17       0.000    
    378      1     14     18       0.000    
    379      1     14     19       0.000    
    380      1     14     20       0.000    
    381      1     14     21       0.000    
    382      1     14     22       0.000    
    383      1     14     23       0.000    
    384      1     14     24       0.000    
    385      1     14     25       0.000    
    386      1     14     26       0.000    
    387      1     14     27       0.000    
    388      1     14     28       0.000    
    389      1     14     29       0.000    
    390      1     14     30       0.000    
    391      1     15      1       0.000    
    392      1     15      2       0.000    
    393      1     15      3       0.000    
    394      1     15      4       0.000    
    395      1     15      5       0.000    
    396      1     15      6       0.000    
    397      1     15      7       0.000    
    398      1     15      8       0.000    
    399      1     15      9       0.000    
    400      1     15     10       0.000    
    401      1     15     11       0.000    
    402      1     15     12       0.000    
    403      1     15     13       0.000    
    404      1     15     14       0.000    
    405      1     15     15       0.000    
    406      1     15     16       0.000    
    407      1     15     17       0.000    
    408      1     15     18       0.000    
    409      1     15     19       0.000    
    410      1     15     20       0.000    
    411      1     15     21       0.000    
    412      1     15     22       0.000    
    413      1     15     23       0.000    
    414      1     15     24       0.000    
    415      1     15     25       0.000    
    416      1     15     26       0.000    
    417      1     15     27       0.000    
    418      1     15     28       0.000    
    419      1     15     29       0.000    
    420      1     15     30       0.000    
    421      1     16      1       0.000    
    422      1     16      2       0.000    
    423      1     16      3       0.000    
    424      1     16      4       0.000    
    425      1     16      5       0.000    
    426      1     16      6       0.000    
    427      1     16      7       0.000    
    428      1     16      8       0.000    
    429      1     16      9       0.000    
    430      1     16     10       0.000    
    431      1     16     11       0.000    
    432      1     16     12       0.000    
    433      1     16     13       0.000    
    434      1     16     14       0.000    
    435      1     16     15       0.000    
    436      1     16     16       0.000    
    437      1     16     17       0.000    
    438      1     16     18       0.000    
    439      1     16     19       0.000    
    440      1     16     20       0.000    
    441      1     16     21       0.000    
    442      1     16     22       0.000    
    443      1     16     23       0.000    
    444      1     16     24       0.000    
    445      1     16     25       0.000    
    446      1     16     26       0.000    
    447      1     16     27       0.000    
    448      1     16     28       0.000    
    449      1     16     29       0.000    
    450      1     16     30       0.000    
    451      1     17      1       0.000    
    452      1     17      2       0.000    
    453      1     17      3       0.000    
    454      1     17      4       0.000    
    455      1     17      5       0.000    
    456      1     17      6       0.000    
    457      1     17      7       0.000    
    458      1     17      8       0.000    
    459      1     17      9       0.000    
    460      1     17     10       0.000    
    461      1     17     11       0.000    
    462      1     17     12       0.000    
    463      1     17     13       0.000    
    464      1     17     14       0.000    
    465      1     17     15       0.000    
    466      1     17     16       0.000    
    467      1     17     17       0.000    
    468      1     17     18       0.000    
    469      1     17     19       0.000    
    470      1     17     20       0.000    
    471      1     17     21       0.000    
    472      1     17     22       0.000    
    473      1     17     23       0.000    
    474      1     17     24       0.000    
    475      1     17     25       0.000    
    476      1     17     26       0.000    
    477      1     17     27       0.000    
    478      1     17     28       0.000    
    479      1     17     29       0.000    
    480      1     17     30       0.000    
    481      1     18      1       0.000    
    482      1     18      2       0.000    
    483      1     18      3       0.000    
    484      1     18      4       0.000    
    485      1     18      5       0.000    
    486      1     18      6       0.000    
    487      1     18      7       0.000    
    488      1     18      8       0.000    
    489      1     18      9       0.000    
    490      1     18     10       0.000    
    491      1     18     11       0.000    
    492      1     18     12       0.000    
    493      1     18     13       0.000    
    494      1     18     14       0.000    
    495      1     18     15       0.000    
    496      1     18     16       0.000    
    497      1     18     17       0.000    
    498      1     18     18       0.000    
    499      1     18     19       0.000    
    500      1     18     20       0.000    
    501      1     18     21       0.000    
    502      1     18     22       0.000    
    503      1     18     23       0.000    
    504      1     18     24       0.000    
    505      1     18     25       0.000    
    506      1     18     26       0.000    
    507      1     18     27       0.000    
    508      1     18     28       0.000    
    509      1     18     29       0.000    
    510      1     18     30       0.000    
    511      1     19      1       0.000    
    512      1     19      2       0.000    
    513      1     19      3       0.000    
    514      1     19      4       0.000    
    515      1     19      5       0.000    
    516      1     19      6       0.000    
    517      1     19      7       0.000    
    518      1     19      8       0.000    
    519      1     19      9       0.000    
    520      1     19     10       0.000    
    521      1     19     11       0.000    
    522      1     19     12       0.000    
    523      1     19     13       0.000    
    524      1     19     14       0.000    
    525      1     19     15       0.000    
    526      1     19     16       0.000    
    527      1     19     17       0.000    
    528      1     19     18       0.000    
    529      1     19     19       0.000    
    530      1     19     20       0.000    
    531      1     19     21       0.000    
    532      1     19     22       0.000    
    533      1     19     23       0.000    
    534      1     19     24       0.000    
    535      1     19     25       0.000    
    536      1     19     26       0.000    
    537      1     19     27       0.000    
    538      1     19     28       0.000    
    539      1     19     29       0.000    
    540      1     19     30       0.000    
    541      1     20      1       0.000    
    542      1     20      2       0.000    
    543      1     20      3       0.000    
    544      1     20      4       0.000    
    545      1     20      5       0.000    
    546      1     20      6       0.000    
    547      1     20      7       0.000    
    548      1     20      8       0.000    
    549      1     20      9       0.000    
    550      1     20     10       0.000    
    551      1     20     11       0.000    
    552      1     20     12       0.000    
    553      1     20     13       0.000    
    554      1     20     14       0.000    
    555      1     20     15       0.000    
    556      1     20     16       0.000    
    557      1     20     17       0.000    
    558      1     20     18       0.000    
    559      1     20     19       0.000    
    560      1     20     20       0.000    
    561      1     20     21       0.000    
    562      1     20     22       0.000    
    563      1     20     23       0.000    
    564      1     20     24       0.000    
    565      1     20     25       0.000    
    566      1     20     26       0.000    
    567      1     20     27       0.000    
    568      1     20     28       0.000    
    569      1     20     29       0.000    
    570      1     20     30       0.000    
    571      1     21      1       0.000    
    572      1     21      2       0.000    
    573      1     21      3       0.000    
    574      1     21      4       0.000    
    575      1     21      5       0.000    
    576      1     21      6       0.000    
    577      1     21      7       0.000    
    578      1     21      8       0.000    
    579      1     21      9       0.000    
    580      1     21     10       0.000    
    581      1     21     11       0.000    
    582      1     21     12       0.000    
    583      1     21     13       0.000    
    584      1     21     14       0.000    
    585      1     21     15       0.000    
    586      1     21     16       0.000    
    587      1     21     17       0.000    
    588      1     21     18       0.000    
    589      1     21     19       0.000    
    590      1     21     20       0.000    
    591      1     21     21       0.000    
    592      1     21     22       0.000    
    593      1     21     23       0.000    
    594      1     21     24       0.000    
    595      1     21     25       0.000    
    596      1     21     26       0.000    
    597      1     21     27       0.000    
    598      1     21     28       0.000    
    599      1     21     29       0.000    
    600      1     21     30       0.000    
    601      1     22      1       0.000    
    602      1     22      2       0.000    
    603      1     22      3       0.000    
    604      1     22      4       0.000    
    605      1     22      5       0.000    
    606      1     22      6       0.000    
    607      1     22      7       0.000    
    608      1     22      8       0.000    
    609      1     22      9       0.000    
    610      1     22     10       0.000    
    611      1     22     11       0.000    
    612      1     22     12       0.000    
    613      1     22     13       0.000    
    614      1     22     14       0.000    
    615      1     22     15       0.000    
    616      1     22     16       0.000    
    617      1     22     17       0.000    
    618      1     22     18       0.000    
    619      1     22     19       0.000    
    620      1     22     20       0.000    
    621      1     22     21       0.000    
    622      1     22     22       0.000    
    623      1     22     23       0.000    
    624      1     22     24       0.000    
    625      1     22     25       0.000    
    626      1     22     26       0.000    
    627      1     22     27       0.000    
    628      1     22     28       0.000    
    629      1     22     29       0.000    
    630      1     22     30       0.000    
    631      1     23      1       0.000    
    632      1     23      2       0.000    
    633      1     23      3       0.000    
    634      1     23      4       0.000    
    635      1     23      5       0.000    
    636      1     23      6       0.000    
    637      1     23      7       0.000    
    638      1     23      8       0.000    
    639      1     23      9       0.000    
    640      1     23     10       0.000    
    641      1     23     11       0.000    
    642      1     23     12       0.000    
    643      1     23     13       0.000    
    644      1     23     14       0.000    
    645      1     23     15       0.000    
    646      1     23     16       0.000    
    647      1     23     17       0.000    
    648      1     23     18       0.000    
    649      1     23     19       0.000    
    650      1     23     20       0.000    
    651      1     23     21       0.000    
    652      1     23     22       0.000    
    653      1     23     23       0.000    
    654      1     23     24       0.000    
    655      1     23     25       0.000    
    656      1     23     26       0.000    
    657      1     23     27       0.000    
    658      1     23     28       0.000    
    659      1     23     29       0.000    
    660      1     23     30       0.000    
    661      1     24      1       0.000    
    662      1     24      2       0.000    
    663      1     24      3       0.000    
    664      1     24      4       0.000    
    665      1     24      5       0.000    
    666      1     24      6       0.000    
    667      1     24      7       0.000    
    668      1     24      8       0.000    
    669      1     24      9       0.000    
    670      1     24     10       0.000    
    671      1     24     11       0.000    
    672      1     24     12       0.000    
    673      1     24     13       0.000    
    674      1     24     14       0.000    
    675      1     24     15       0.000    
    676      1     24     16       0.000    
    677      1     24     17       0.000    
    678      1     24     18       0.000    
    679      1     24     19       0.000    
    680      1     24     20       0.000    
    681      1     24     21       0.000    
    682      1     24     22       0.000    
    683      1     24     23       0.000    
    684      1     24     24       0.000    
    685      1     24     25       0.000    
    686      1     24     26       0.000    
    687      1     24     27       0.000    
    688      1     24     28       0.000    
    689      1     24     29       0.000    
    690      1     24     30       0.000    

    690 WELLS

                 RECHARGE =   0.00000    

 REUSING STREAM SEGMENT DATA FROM LAST STRESS PERIOD

 SOLVING FOR HEAD 


     5 CALLS TO PCG ROUTINE FOR TIME STEP   1 IN STRESS PERIOD    7
    18 TOTAL ITERATIONS

 OUTPUT CONTROL FOR STRESS PERIOD    7   TIME STEP    1
    SAVE HEAD FOR ALL LAYERS
    SAVE BUDGET



 STREAM LISTING     PERIOD      7   STEP        1

 LAYER ROW COL. STREAM  RCH.  FLOW INTO     FLOW TO   FLOW OUT OF   OVRLND.     DIRECT     STREAM       STREAM     STREAM     STREAM   STREAMBED  STREAMBED
                SEG.NO.  NO.  STRM. RCH.    AQUIFER    STRM. RCH.    RUNOFF     PRECIP       ET          HEAD       DEPTH      WIDTH   CONDCTNC.   GRADIENT

   1   13    1     1     1    1.0000E+05 -2.7519E+04   1.2752E+05  0.000E+00  0.000E+00  0.000E+00  4.84176E+01  1.563E-01  2.000E+01  2.000E+04 -1.376E+00
   1   13    2     1     2    1.2752E+05 -3.7205E+04   1.6472E+05  0.000E+00  0.000E+00  0.000E+00  4.79657E+01  1.816E-01  2.000E+01  2.000E+04 -1.860E+00
   1   14    3     1     3    1.6472E+05 -3.2688E+04   1.9741E+05  0.000E+00  0.000E+00  0.000E+00  4.75134E+01  2.066E-01  2.000E+01  2.000E+04 -1.634E+00
   1   15    4     1     4    1.9741E+05 -3.1938E+04   2.2935E+05  0.000E+00  0.000E+00  0.000E+00  4.70575E+01  2.279E-01  2.000E+01  2.000E+04 -1.597E+00
   1   16    5     1     5    2.2935E+05 -3.3493E+04   2.6284E+05  0.000E+00  0.000E+00  0.000E+00  4.66006E+01  2.483E-01  2.000E+01  2.000E+04 -1.675E+00
   1   16    6     1     6    2.6284E+05 -2.9276E+04   2.9212E+05  0.000E+00  0.000E+00  0.000E+00  4.61418E+01  2.668E-01  2.000E+01  2.000E+04 -1.464E+00
   1   16    7     1     7    2.9212E+05 -2.9113E+04   3.2123E+05  0.000E+00  0.000E+00  0.000E+00  4.56811E+01  2.834E-01  2.000E+01  2.000E+04 -1.456E+00
   1   16    8     1     8    3.2123E+05 -2.9310E+04   3.5054E+05  0.000E+00  0.000E+00  0.000E+00  4.52197E+01  2.993E-01  2.000E+01  2.000E+04 -1.466E+00
   1   16    9     1     9    3.5054E+05 -2.9409E+04   3.7995E+05  0.000E+00  0.000E+00  0.000E+00  4.47579E+01  3.147E-01  2.000E+01  2.000E+04 -1.470E+00
   1   16   10     1    10    3.7995E+05 -2.9459E+04   4.0941E+05  0.000E+00  0.000E+00  0.000E+00  4.42956E+01  3.297E-01  2.000E+01  2.000E+04 -1.473E+00
   1   16   11     1    11    4.0941E+05 -3.0088E+04   4.3950E+05  0.000E+00  0.000E+00  0.000E+00  4.38330E+01  3.444E-01  2.000E+01  2.000E+04 -1.504E+00
   1   16   12     1    12    4.3950E+05 -3.5611E+04   4.7511E+05  0.000E+00  0.000E+00  0.000E+00  4.33715E+01  3.601E-01  2.000E+01  2.000E+04 -1.781E+00
   1   15   13     1    13    4.7511E+05 -3.4332E+04   5.0944E+05  0.000E+00  0.000E+00  0.000E+00  4.29105E+01  3.764E-01  2.000E+01  2.000E+04 -1.717E+00
   1   14   14     1    14    5.0944E+05 -3.4916E+04   5.4436E+05  0.000E+00  0.000E+00  0.000E+00  4.24489E+01  3.921E-01  2.000E+01  2.000E+04 -1.746E+00
   1   13   15     1    15    5.4436E+05 -3.7140E+04   5.8150E+05  0.000E+00  0.000E+00  0.000E+00  4.19875E+01  4.079E-01  2.000E+01  2.000E+04 -1.857E+00
   1   12   16     1    16    5.8150E+05 -4.3187E+04   6.2468E+05  0.000E+00  0.000E+00  0.000E+00  4.15274E+01  4.252E-01  2.000E+01  2.000E+04 -2.159E+00
   1   12   17     1    17    6.2468E+05 -3.3788E+04   6.5847E+05  0.000E+00  0.000E+00  0.000E+00  4.10662E+01  4.412E-01  2.000E+01  2.000E+04 -1.689E+00
   1   12   18     1    18    6.5847E+05 -3.2183E+04   6.9065E+05  0.000E+00  0.000E+00  0.000E+00  4.06024E+01  4.547E-01  2.000E+01  2.000E+04 -1.609E+00
   1   12   19     1    19    6.9065E+05 -3.6241E+04   7.2690E+05  0.000E+00  0.000E+00  0.000E+00  4.01389E+01  4.684E-01  2.000E+01  2.000E+04 -1.812E+00
   1   13   20     1    20    7.2690E+05 -2.6576E+04   7.5347E+05  0.000E+00  0.000E+00  0.000E+00  3.96739E+01  4.808E-01  2.000E+01  2.000E+04 -1.329E+00
   1   14   21     1    21    7.5347E+05 -1.9538E+04   7.7301E+05  0.000E+00  0.000E+00  0.000E+00  3.92056E+01  4.897E-01  2.000E+01  2.000E+04 -9.769E-01
   1   14   22     1    22    7.7301E+05 -1.6762E+03   7.7469E+05  0.000E+00  0.000E+00  0.000E+00  3.87324E+01  4.938E-01  2.000E+01  2.000E+04 -8.381E-02
   1    9   30     2     1    5.0000E+04 -2.6356E+04   7.6356E+04  0.000E+00  0.000E+00  0.000E+00  4.02583E+01  1.333E-01  2.000E+01  2.000E+04 -1.318E+00
   1    9   29     2     2    7.6356E+04 -2.8824E+04   1.0518E+05  0.000E+00  0.000E+00  0.000E+00  4.00407E+01  1.657E-01  2.000E+01  2.000E+04 -1.441E+00
   1    9   28     2     3    1.0518E+05 -3.3109E+04   1.3829E+05  0.000E+00  0.000E+00  0.000E+00  3.98226E+01  1.976E-01  2.000E+01  2.000E+04 -1.655E+00
   1    9   27     2     4    1.3829E+05 -4.7196E+04   1.8548E+05  0.000E+00  0.000E+00  0.000E+00  3.96095E+01  2.345E-01  2.000E+01  2.000E+04 -2.360E+00
   1   10   26     2     5    1.8548E+05 -3.3169E+04   2.1865E+05  0.000E+00  0.000E+00  0.000E+00  3.93928E+01  2.678E-01  2.000E+01  2.000E+04 -1.658E+00
   1   11   25     2     6    2.1865E+05 -2.4842E+04   2.4349E+05  0.000E+00  0.000E+00  0.000E+00  3.91653E+01  2.903E-01  2.000E+01  2.000E+04 -1.242E+00
   1   12   24     2     7    2.4349E+05 -1.8311E+04   2.6181E+05  0.000E+00  0.000E+00  0.000E+00  3.89313E+01  3.063E-01  2.000E+01  2.000E+04 -9.156E-01
   1   13   23     2     8    2.6181E+05 -1.3016E+04   2.7482E+05  0.000E+00  0.000E+00  0.000E+00  3.86925E+01  3.175E-01  2.000E+01  2.000E+04 -6.508E-01
   1   14   22     2     9    2.7482E+05 -7.3305E+03   2.8215E+05  0.000E+00  0.000E+00  0.000E+00  3.84497E+01  3.247E-01  2.000E+01  2.000E+04 -3.665E-01
   1   14   22     3     1    1.0568E+06 -1.5291E+04   1.0721E+06  0.000E+00  0.000E+00  0.000E+00  3.80517E+01  4.961E-01  2.000E+01  2.000E+04 -7.645E-01
   1   15   23     3     2    1.0721E+06 -2.3526E+04   1.0957E+06  0.000E+00  0.000E+00  0.000E+00  3.71682E+01  5.015E-01  2.000E+01  2.000E+04 -1.176E+00
   1   15   24     3     3    1.0957E+06 -1.9579E+04   1.1152E+06  0.000E+00  0.000E+00  0.000E+00  3.62853E+01  5.075E-01  2.000E+01  2.000E+04 -9.790E-01
   1   15   25     3     4    1.1152E+06 -1.9170E+04   1.1344E+06  0.000E+00  0.000E+00  0.000E+00  3.54017E+01  5.128E-01  2.000E+01  2.000E+04 -9.585E-01
   1   15   26     3     5    1.1344E+06 -2.1892E+04   1.1563E+06  0.000E+00  0.000E+00  0.000E+00  3.45184E+01  5.184E-01  2.000E+01  2.000E+04 -1.095E+00
   1   16   27     3     6    1.1563E+06 -2.9029E+04   1.1853E+06  0.000E+00  0.000E+00  0.000E+00  3.36364E+01  5.253E-01  2.000E+01  2.000E+04 -1.451E+00
   1   17   28     3     7    1.1853E+06 -3.6084E+04   1.2214E+06  0.000E+00  0.000E+00  0.000E+00  3.27562E+01  5.340E-01  2.000E+01  2.000E+04 -1.804E+00
   1   18   29     3     8    1.2214E+06 -4.7092E+04   1.2685E+06  0.000E+00  0.000E+00  0.000E+00  3.18783E+01  5.450E-01  2.000E+01  2.000E+04 -2.355E+00
   1   18   30     3     9    1.2685E+06 -4.3549E+04   1.3120E+06  0.000E+00  0.000E+00  0.000E+00  3.10013E+01  5.568E-01  2.000E+01  2.000E+04 -2.177E+00




 HEAD WILL BE SAVED ON UNIT   51 AT END OF TIME STEP    1, STRESS PERIOD    7
1
  VOLUMETRIC BUDGET FOR ENTIRE MODEL AT END OF TIME STEP    1, STRESS PERIOD   7
  ------------------------------------------------------------------------------

     CUMULATIVE VOLUMES      L**3       RATES FOR THIS TIME STEP      L**3/T
     ------------------                 ------------------------

           IN:                                      IN:
           ---                                      ---
             STORAGE =    20075370.0000               STORAGE =        2516.2471
       CONSTANT HEAD =   729134080.0000         CONSTANT HEAD =     1159532.6250
               WELLS =           0.0000                 WELLS =           0.0000
            RECHARGE =    15097200.0000              RECHARGE =           0.0000
      STREAM LEAKAGE =           0.0000        STREAM LEAKAGE =           0.0000

            TOTAL IN =   764306688.0000              TOTAL IN =     1162048.8750

          OUT:                                     OUT:
          ----                                     ----
             STORAGE =      279714.9688               STORAGE =           0.0000
       CONSTANT HEAD =           0.0000         CONSTANT HEAD =           0.0000
               WELLS =           0.0000                 WELLS =           0.0000
            RECHARGE =           0.0000              RECHARGE =           0.0000
      STREAM LEAKAGE =   764026880.0000        STREAM LEAKAGE =     1162048.8750

           TOTAL OUT =   764306624.0000             TOTAL OUT =     1162048.8750

            IN - OUT =          64.0000              IN - OUT =           0.0000

 PERCENT DISCREPANCY =           0.00     PERCENT DISCREPANCY =           0.00






         TIME SUMMARY AT END OF TIME STEP    1 IN STRESS PERIOD    7
                    SECONDS     MINUTES      HOURS       DAYS        YEARS
                    -----------------------------------------------------------
   TIME STEP LENGTH 7.86240E+06 1.31040E+05  2184.0      91.000     0.24914    
 STRESS PERIOD TIME 7.86240E+06 1.31040E+05  2184.0      91.000     0.24914    
         TOTAL TIME 5.52096E+07 9.20160E+05  15336.      639.00      1.7495    
1
1
                            STRESS PERIOD NO.    8, LENGTH =   91.00000    
                            -----------------------------------------------

                              NUMBER OF TIME STEPS =     1

                               MULTIPLIER FOR DELT =     1.500

                            INITIAL TIME STEP SIZE =   91.00000    

 WELL NO.  LAYER   ROW   COL   STRESS RATE         
 --------------------------------------------------
      1      1      2      1       0.000    
      2      1      2      2       0.000    
      3      1      2      3       0.000    
      4      1      2      4       0.000    
      5      1      2      5       0.000    
      6      1      2      6       0.000    
      7      1      2      7       0.000    
      8      1      2      8       0.000    
      9      1      2      9       0.000    
     10      1      2     10       0.000    
     11      1      2     11       0.000    
     12      1      2     12       0.000    
     13      1      2     13       0.000    
     14      1      2     14       0.000    
     15      1      2     15       0.000    
     16      1      2     16       0.000    
     17      1      2     17       0.000    
     18      1      2     18       0.000    
     19      1      2     19       0.000    
     20      1      2     20       0.000    
     21      1      2     21       0.000    
     22      1      2     22       0.000    
     23      1      2     23       0.000    
     24      1      2     24       0.000    
     25      1      2     25       0.000    
     26      1      2     26       0.000    
     27      1      2     27       0.000    
     28      1      2     28       0.000    
     29      1      2     29       0.000    
     30      1      2     30       0.000    
     31      1      3      1       0.000    
     32      1      3      2       0.000    
     33      1      3      3       0.000    
     34      1      3      4       0.000    
     35      1      3      5       0.000    
     36      1      3      6       0.000    
     37      1      3      7       0.000    
     38      1      3      8       0.000    
     39      1      3      9       0.000    
     40      1      3     10       0.000    
     41      1      3     11       0.000    
     42      1      3     12       0.000    
     43      1      3     13       0.000    
     44      1      3     14       0.000    
     45      1      3     15       0.000    
     46      1      3     16       0.000    
     47      1      3     17       0.000    
     48      1      3     18       0.000    
     49      1      3     19       0.000    
     50      1      3     20       0.000    
     51      1      3     21       0.000    
     52      1      3     22       0.000    
     53      1      3     23       0.000    
     54      1      3     24       0.000    
     55      1      3     25       0.000    
     56      1      3     26       0.000    
     57      1      3     27       0.000    
     58      1      3     28       0.000    
     59      1      3     29       0.000    
     60      1      3     30       0.000    
     61      1      4      1       0.000    
     62      1      4      2       0.000    
     63      1      4      3       0.000    
     64      1      4      4       0.000    
     65      1      4      5       0.000    
     66      1      4      6       0.000    
     67      1      4      7       0.000    
     68      1      4      8       0.000    
     69      1      4      9       0.000    
     70      1      4     10       0.000    
     71      1      4     11       0.000    
     72      1      4     12       0.000    
     73      1      4     13       0.000    
     74      1      4     14       0.000    
     75      1      4     15       0.000    
     76      1      4     16       0.000    
     77      1      4     17       0.000    
     78      1      4     18       0.000    
     79      1      4     19       0.000    
     80      1      4     20       0.000    
     81      1      4     21       0.000    
     82      1      4     22       0.000    
     83      1      4     23       0.000    
     84      1      4     24       0.000    
     85      1      4     25       0.000    
     86      1      4     26       0.000    
     87      1      4     27       0.000    
     88      1      4     28       0.000    
     89      1      4     29       0.000    
     90      1      4     30       0.000    
     91      1      5      1       0.000    
     92      1      5      2       0.000    
     93      1      5      3       0.000    
     94      1      5      4       0.000    
     95      1      5      5       0.000    
     96      1      5      6       0.000    
     97      1      5      7       0.000    
     98      1      5      8       0.000    
     99      1      5      9       0.000    
    100      1      5     10       0.000    
    101      1      5     11       0.000    
    102      1      5     12       0.000    
    103      1      5     13       0.000    
    104      1      5     14       0.000    
    105      1      5     15       0.000    
    106      1      5     16       0.000    
    107      1      5     17       0.000    
    108      1      5     18       0.000    
    109      1      5     19       0.000    
    110      1      5     20       0.000    
    111      1      5     21       0.000    
    112      1      5     22       0.000    
    113      1      5     23       0.000    
    114      1      5     24       0.000    
    115      1      5     25       0.000    
    116      1      5     26       0.000    
    117      1      5     27       0.000    
    118      1      5     28       0.000    
    119      1      5     29       0.000    
    120      1      5     30       0.000    
    121      1      6      1       0.000    
    122      1      6      2       0.000    
    123      1      6      3       0.000    
    124      1      6      4       0.000    
    125      1      6      5       0.000    
    126      1      6      6       0.000    
    127      1      6      7       0.000    
    128      1      6      8       0.000    
    129      1      6      9       0.000    
    130      1      6     10       0.000    
    131      1      6     11       0.000    
    132      1      6     12       0.000    
    133      1      6     13       0.000    
    134      1      6     14       0.000    
    135      1      6     15       0.000    
    136      1      6     16       0.000    
    137      1      6     17       0.000    
    138      1      6     18       0.000    
    139      1      6     19       0.000    
    140      1      6     20       0.000    
    141      1      6     21       0.000    
    142      1      6     22       0.000    
    143      1      6     23       0.000    
    144      1      6     24       0.000    
    145      1      6     25       0.000    
    146      1      6     26       0.000    
    147      1      6     27       0.000    
    148      1      6     28       0.000    
    149      1      6     29       0.000    
    150      1      6     30       0.000    
    151      1      7      1       0.000    
    152      1      7      2       0.000    
    153      1      7      3       0.000    
    154      1      7      4       0.000    
    155      1      7      5       0.000    
    156      1      7      6       0.000    
    157      1      7      7       0.000    
    158      1      7      8       0.000    
    159      1      7      9       0.000    
    160      1      7     10       0.000    
    161      1      7     11       0.000    
    162      1      7     12       0.000    
    163      1      7     13       0.000    
    164      1      7     14       0.000    
    165      1      7     15       0.000    
    166      1      7     16       0.000    
    167      1      7     17       0.000    
    168      1      7     18       0.000    
    169      1      7     19       0.000    
    170      1      7     20       0.000    
    171      1      7     21       0.000    
    172      1      7     22       0.000    
    173      1      7     23       0.000    
    174      1      7     24       0.000    
    175      1      7     25       0.000    
    176      1      7     26       0.000    
    177      1      7     27       0.000    
    178      1      7     28       0.000    
    179      1      7     29       0.000    
    180      1      7     30       0.000    
    181      1      8      1       0.000    
    182      1      8      2       0.000    
    183      1      8      3       0.000    
    184      1      8      4       0.000    
    185      1      8      5       0.000    
    186      1      8      6       0.000    
    187      1      8      7       0.000    
    188      1      8      8       0.000    
    189      1      8      9       0.000    
    190      1      8     10       0.000    
    191      1      8     11       0.000    
    192      1      8     12       0.000    
    193      1      8     13       0.000    
    194      1      8     14       0.000    
    195      1      8     15       0.000    
    196      1      8     16       0.000    
    197      1      8     17       0.000    
    198      1      8     18       0.000    
    199      1      8     19       0.000    
    200      1      8     20       0.000    
    201      1      8     21       0.000    
    202      1      8     22       0.000    
    203      1      8     23       0.000    
    204      1      8     24       0.000    
    205      1      8     25       0.000    
    206      1      8     26       0.000    
    207      1      8     27       0.000    
    208      1      8     28       0.000    
    209      1      8     29       0.000    
    210      1      8     30       0.000    
    211      1      9      1       0.000    
    212      1      9      2       0.000    
    213      1      9      3       0.000    
    214      1      9      4       0.000    
    215      1      9      5       0.000    
    216      1      9      6       0.000    
    217      1      9      7       0.000    
    218      1      9      8       0.000    
    219      1      9      9       0.000    
    220      1      9     10       0.000    
    221      1      9     11       0.000    
    222      1      9     12       0.000    
    223      1      9     13       0.000    
    224      1      9     14       0.000    
    225      1      9     15       0.000    
    226      1      9     16       0.000    
    227      1      9     17       0.000    
    228      1      9     18       0.000    
    229      1      9     19       0.000    
    230      1      9     20       0.000    
    231      1      9     21       0.000    
    232      1      9     22       0.000    
    233      1      9     23       0.000    
    234      1      9     24       0.000    
    235      1      9     25       0.000    
    236      1      9     26       0.000    
    237      1      9     27       0.000    
    238      1      9     28       0.000    
    239      1      9     29       0.000    
    240      1      9     30       0.000    
    241      1     10      1       0.000    
    242      1     10      2       0.000    
    243      1     10      3       0.000    
    244      1     10      4       0.000    
    245      1     10      5       0.000    
    246      1     10      6       0.000    
    247      1     10      7       0.000    
    248      1     10      8       0.000    
    249      1     10      9       0.000    
    250      1     10     10       0.000    
    251      1     10     11       0.000    
    252      1     10     12       0.000    
    253      1     10     13       0.000    
    254      1     10     14       0.000    
    255      1     10     15       0.000    
    256      1     10     16       0.000    
    257      1     10     17       0.000    
    258      1     10     18       0.000    
    259      1     10     19       0.000    
    260      1     10     20       0.000    
    261      1     10     21       0.000    
    262      1     10     22       0.000    
    263      1     10     23       0.000    
    264      1     10     24       0.000    
    265      1     10     25       0.000    
    266      1     10     26       0.000    
    267      1     10     27       0.000    
    268      1     10     28       0.000    
    269      1     10     29       0.000    
    270      1     10     30       0.000    
    271      1     11      1       0.000    
    272      1     11      2       0.000    
    273      1     11      3       0.000    
    274      1     11      4       0.000    
    275      1     11      5       0.000    
    276      1     11      6       0.000    
    277      1     11      7       0.000    
    278      1     11      8       0.000    
    279      1     11      9       0.000    
    280      1     11     10       0.000    
    281      1     11     11       0.000    
    282      1     11     12       0.000    
    283      1     11     13       0.000    
    284      1     11     14       0.000    
    285      1     11     15       0.000    
    286      1     11     16       0.000    
    287      1     11     17       0.000    
    288      1     11     18       0.000    
    289      1     11     19       0.000    
    290      1     11     20       0.000    
    291      1     11     21       0.000    
    292      1     11     22       0.000    
    293      1     11     23       0.000    
    294      1     11     24       0.000    
    295      1     11     25       0.000    
    296      1     11     26       0.000    
    297      1     11     27       0.000    
    298      1     11     28       0.000    
    299      1     11     29       0.000    
    300      1     11     30       0.000    
    301      1     12      1       0.000    
    302      1     12      2       0.000    
    303      1     12      3       0.000    
    304      1     12      4       0.000    
    305      1     12      5       0.000    
    306      1     12      6       0.000    
    307      1     12      7       0.000    
    308      1     12      8       0.000    
    309      1     12      9       0.000    
    310      1     12     10       0.000    
    311      1     12     11       0.000    
    312      1     12     12       0.000    
    313      1     12     13       0.000    
    314      1     12     14       0.000    
    315      1     12     15       0.000    
    316      1     12     16       0.000    
    317      1     12     17       0.000    
    318      1     12     18       0.000    
    319      1     12     19       0.000    
    320      1     12     20       0.000    
    321      1     12     21       0.000    
    322      1     12     22       0.000    
    323      1     12     23       0.000    
    324      1     12     24       0.000    
    325      1     12     25       0.000    
    326      1     12     26       0.000    
    327      1     12     27       0.000    
    328      1     12     28       0.000    
    329      1     12     29       0.000    
    330      1     12     30       0.000    
    331      1     13      1       0.000    
    332      1     13      2       0.000    
    333      1     13      3       0.000    
    334      1     13      4       0.000    
    335      1     13      5       0.000    
    336      1     13      6       0.000    
    337      1     13      7       0.000    
    338      1     13      8       0.000    
    339      1     13      9       0.000    
    340      1     13     10       0.000    
    341      1     13     11       0.000    
    342      1     13     12       0.000    
    343      1     13     13       0.000    
    344      1     13     14       0.000    
    345      1     13     15       0.000    
    346      1     13     16       0.000    
    347      1     13     17       0.000    
    348      1     13     18       0.000    
    349      1     13     19       0.000    
    350      1     13     20       0.000    
    351      1     13     21       0.000    
    352      1     13     22       0.000    
    353      1     13     23       0.000    
    354      1     13     24       0.000    
    355      1     13     25       0.000    
    356      1     13     26       0.000    
    357      1     13     27       0.000    
    358      1     13     28       0.000    
    359      1     13     29       0.000    
    360      1     13     30       0.000    
    361      1     14      1       0.000    
    362      1     14      2       0.000    
    363      1     14      3       0.000    
    364      1     14      4       0.000    
    365      1     14      5       0.000    
    366      1     14      6       0.000    
    367      1     14      7       0.000    
    368      1     14      8       0.000    
    369      1     14      9       0.000    
    370      1     14     10       0.000    
    371      1     14     11       0.000    
    372      1     14     12       0.000    
    373      1     14     13       0.000    
    374      1     14     14       0.000    
    375      1     14     15       0.000    
    376      1     14     16       0.000    
    377      1     14     17       0.000    
    378      1     14     18       0.000    
    379      1     14     19       0.000    
    380      1     14     20       0.000    
    381      1     14     21       0.000    
    382      1     14     22       0.000    
    383      1     14     23       0.000    
    384      1     14     24       0.000    
    385      1     14     25       0.000    
    386      1     14     26       0.000    
    387      1     14     27       0.000    
    388      1     14     28       0.000    
    389      1     14     29       0.000    
    390      1     14     30       0.000    
    391      1     15      1       0.000    
    392      1     15      2       0.000    
    393      1     15      3       0.000    
    394      1     15      4       0.000    
    395      1     15      5       0.000    
    396      1     15      6       0.000    
    397      1     15      7       0.000    
    398      1     15      8       0.000    
    399      1     15      9       0.000    
    400      1     15     10       0.000    
    401      1     15     11       0.000    
    402      1     15     12       0.000    
    403      1     15     13       0.000    
    404      1     15     14       0.000    
    405      1     15     15       0.000    
    406      1     15     16       0.000    
    407      1     15     17       0.000    
    408      1     15     18       0.000    
    409      1     15     19       0.000    
    410      1     15     20       0.000    
    411      1     15     21       0.000    
    412      1     15     22       0.000    
    413      1     15     23       0.000    
    414      1     15     24       0.000    
    415      1     15     25       0.000    
    416      1     15     26       0.000    
    417      1     15     27       0.000    
    418      1     15     28       0.000    
    419      1     15     29       0.000    
    420      1     15     30       0.000    
    421      1     16      1       0.000    
    422      1     16      2       0.000    
    423      1     16      3       0.000    
    424      1     16      4       0.000    
    425      1     16      5       0.000    
    426      1     16      6       0.000    
    427      1     16      7       0.000    
    428      1     16      8       0.000    
    429      1     16      9       0.000    
    430      1     16     10       0.000    
    431      1     16     11       0.000    
    432      1     16     12       0.000    
    433      1     16     13       0.000    
    434      1     16     14       0.000    
    435      1     16     15       0.000    
    436      1     16     16       0.000    
    437      1     16     17       0.000    
    438      1     16     18       0.000    
    439      1     16     19       0.000    
    440      1     16     20       0.000    
    441      1     16     21       0.000    
    442      1     16     22       0.000    
    443      1     16     23       0.000    
    444      1     16     24       0.000    
    445      1     16     25       0.000    
    446      1     16     26       0.000    
    447      1     16     27       0.000    
    448      1     16     28       0.000    
    449      1     16     29       0.000    
    450      1     16     30       0.000    
    451      1     17      1       0.000    
    452      1     17      2       0.000    
    453      1     17      3       0.000    
    454      1     17      4       0.000    
    455      1     17      5       0.000    
    456      1     17      6       0.000    
    457      1     17      7       0.000    
    458      1     17      8       0.000    
    459      1     17      9       0.000    
    460      1     17     10       0.000    
    461      1     17     11       0.000    
    462      1     17     12       0.000    
    463      1     17     13       0.000    
    464      1     17     14       0.000    
    465      1     17     15       0.000    
    466      1     17     16       0.000    
    467      1     17     17       0.000    
    468      1     17     18       0.000    
    469      1     17     19       0.000    
    470      1     17     20       0.000    
    471      1     17     21       0.000    
    472      1     17     22       0.000    
    473      1     17     23       0.000    
    474      1     17     24       0.000    
    475      1     17     25       0.000    
    476      1     17     26       0.000    
    477      1     17     27       0.000    
    478      1     17     28       0.000    
    479      1     17     29       0.000    
    480      1     17     30       0.000    
    481      1     18      1       0.000    
    482      1     18      2       0.000    
    483      1     18      3       0.000    
    484      1     18      4       0.000    
    485      1     18      5       0.000    
    486      1     18      6       0.000    
    487      1     18      7       0.000    
    488      1     18      8       0.000    
    489      1     18      9       0.000    
    490      1     18     10       0.000    
    491      1     18     11       0.000    
    492      1     18     12       0.000    
    493      1     18     13       0.000    
    494      1     18     14       0.000    
    495      1     18     15       0.000    
    496      1     18     16       0.000    
    497      1     18     17       0.000    
    498      1     18     18       0.000    
    499      1     18     19       0.000    
    500      1     18     20       0.000    
    501      1     18     21       0.000    
    502      1     18     22       0.000    
    503      1     18     23       0.000    
    504      1     18     24       0.000    
    505      1     18     25       0.000    
    506      1     18     26       0.000    
    507      1     18     27       0.000    
    508      1     18     28       0.000    
    509      1     18     29       0.000    
    510      1     18     30       0.000    
    511      1     19      1       0.000    
    512      1     19      2       0.000    
    513      1     19      3       0.000    
    514      1     19      4       0.000    
    515      1     19      5       0.000    
    516      1     19      6       0.000    
    517      1     19      7       0.000    
    518      1     19      8       0.000    
    519      1     19      9       0.000    
    520      1     19     10       0.000    
    521      1     19     11       0.000    
    522      1     19     12       0.000    
    523      1     19     13       0.000    
    524      1     19     14       0.000    
    525      1     19     15       0.000    
    526      1     19     16       0.000    
    527      1     19     17       0.000    
    528      1     19     18       0.000    
    529      1     19     19       0.000    
    530      1     19     20       0.000    
    531      1     19     21       0.000    
    532      1     19     22       0.000    
    533      1     19     23       0.000    
    534      1     19     24       0.000    
    535      1     19     25       0.000    
    536      1     19     26       0.000    
    537      1     19     27       0.000    
    538      1     19     28       0.000    
    539      1     19     29       0.000    
    540      1     19     30       0.000    
    541      1     20      1       0.000    
    542      1     20      2       0.000    
    543      1     20      3       0.000    
    544      1     20      4       0.000    
    545      1     20      5       0.000    
    546      1     20      6       0.000    
    547      1     20      7       0.000    
    548      1     20      8       0.000    
    549      1     20      9       0.000    
    550      1     20     10       0.000    
    551      1     20     11       0.000    
    552      1     20     12       0.000    
    553      1     20     13       0.000    
    554      1     20     14       0.000    
    555      1     20     15       0.000    
    556      1     20     16       0.000    
    557      1     20     17       0.000    
    558      1     20     18       0.000    
    559      1     20     19       0.000    
    560      1     20     20       0.000    
    561      1     20     21       0.000    
    562      1     20     22       0.000    
    563      1     20     23       0.000    
    564      1     20     24       0.000    
    565      1     20     25       0.000    
    566      1     20     26       0.000    
    567      1     20     27       0.000    
    568      1     20     28       0.000    
    569      1     20     29       0.000    
    570      1     20     30       0.000    
    571      1     21      1       0.000    
    572      1     21      2       0.000    
    573      1     21      3       0.000    
    574      1     21      4       0.000    
    575      1     21      5       0.000    
    576      1     21      6       0.000    
    577      1     21      7       0.000    
    578      1     21      8       0.000    
    579      1     21      9       0.000    
    580      1     21     10       0.000    
    581      1     21     11       0.000    
    582      1     21     12       0.000    
    583      1     21     13       0.000    
    584      1     21     14       0.000    
    585      1     21     15       0.000    
    586      1     21     16       0.000    
    587      1     21     17       0.000    
    588      1     21     18       0.000    
    589      1     21     19       0.000    
    590      1     21     20       0.000    
    591      1     21     21       0.000    
    592      1     21     22       0.000    
    593      1     21     23       0.000    
    594      1     21     24       0.000    
    595      1     21     25       0.000    
    596      1     21     26       0.000    
    597      1     21     27       0.000    
    598      1     21     28       0.000    
    599      1     21     29       0.000    
    600      1     21     30       0.000    
    601      1     22      1       0.000    
    602      1     22      2       0.000    
    603      1     22      3       0.000    
    604      1     22      4       0.000    
    605      1     22      5       0.000    
    606      1     22      6       0.000    
    607      1     22      7       0.000    
    608      1     22      8       0.000    
    609      1     22      9       0.000    
    610      1     22     10       0.000    
    611      1     22     11       0.000    
    612      1     22     12       0.000    
    613      1     22     13       0.000    
    614      1     22     14       0.000    
    615      1     22     15       0.000    
    616      1     22     16       0.000    
    617      1     22     17       0.000    
    618      1     22     18       0.000    
    619      1     22     19       0.000    
    620      1     22     20       0.000    
    621      1     22     21       0.000    
    622      1     22     22       0.000    
    623      1     22     23       0.000    
    624      1     22     24       0.000    
    625      1     22     25       0.000    
    626      1     22     26       0.000    
    627      1     22     27       0.000    
    628      1     22     28       0.000    
    629      1     22     29       0.000    
    630      1     22     30       0.000    
    631      1     23      1       0.000    
    632      1     23      2       0.000    
    633      1     23      3       0.000    
    634      1     23      4       0.000    
    635      1     23      5       0.000    
    636      1     23      6       0.000    
    637      1     23      7       0.000    
    638      1     23      8       0.000    
    639      1     23      9       0.000    
    640      1     23     10       0.000    
    641      1     23     11       0.000    
    642      1     23     12       0.000    
    643      1     23     13       0.000    
    644      1     23     14       0.000    
    645      1     23     15       0.000    
    646      1     23     16       0.000    
    647      1     23     17       0.000    
    648      1     23     18       0.000    
    649      1     23     19       0.000    
    650      1     23     20       0.000    
    651      1     23     21       0.000    
    652      1     23     22       0.000    
    653      1     23     23       0.000    
    654      1     23     24       0.000    
    655      1     23     25       0.000    
    656      1     23     26       0.000    
    657      1     23     27       0.000    
    658      1     23     28       0.000    
    659      1     23     29       0.000    
    660      1     23     30       0.000    
    661      1     24      1       0.000    
    662      1     24      2       0.000    
    663      1     24      3       0.000    
    664      1     24      4       0.000    
    665      1     24      5       0.000    
    666      1     24      6       0.000    
    667      1     24      7       0.000    
    668      1     24      8       0.000    
    669      1     24      9       0.000    
    670      1     24     10       0.000    
    671      1     24     11       0.000    
    672      1     24     12       0.000    
    673      1     24     13       0.000    
    674      1     24     14       0.000    
    675      1     24     15       0.000    
    676      1     24     16       0.000    
    677      1     24     17       0.000    
    678      1     24     18       0.000    
    679      1     24     19       0.000    
    680      1     24     20       0.000    
    681      1     24     21       0.000    
    682      1     24     22       0.000    
    683      1     24     23       0.000    
    684      1     24     24       0.000    
    685      1     24     25       0.000    
    686      1     24     26       0.000    
    687      1     24     27       0.000    
    688      1     24     28       0.000    
    689      1     24     29       0.000    
    690      1     24     30       0.000    

    690 WELLS

                 RECHARGE =  1.000000E-03

 REUSING STREAM SEGMENT DATA FROM LAST STRESS PERIOD

 SOLVING FOR HEAD 


     5 CALLS TO PCG ROUTINE FOR TIME STEP   1 IN STRESS PERIOD    8
    17 TOTAL ITERATIONS

 OUTPUT CONTROL FOR STRESS PERIOD    8   TIME STEP    1
    SAVE HEAD FOR ALL LAYERS
    SAVE BUDGET



 STREAM LISTING     PERIOD      8   STEP        1

 LAYER ROW COL. STREAM  RCH.  FLOW INTO     FLOW TO   FLOW OUT OF   OVRLND.     DIRECT     STREAM       STREAM     STREAM     STREAM   STREAMBED  STREAMBED
                SEG.NO.  NO.  STRM. RCH.    AQUIFER    STRM. RCH.    RUNOFF     PRECIP       ET          HEAD       DEPTH      WIDTH   CONDCTNC.   GRADIENT

   1   13    1     1     1    1.0000E+05 -2.7911E+04   1.2791E+05  0.000E+00  0.000E+00  0.000E+00  4.84178E+01  1.564E-01  2.000E+01  2.000E+04 -1.396E+00
   1   13    2     1     2    1.2791E+05 -3.7672E+04   1.6558E+05  0.000E+00  0.000E+00  0.000E+00  4.79662E+01  1.821E-01  2.000E+01  2.000E+04 -1.884E+00
   1   14    3     1     3    1.6558E+05 -3.3149E+04   1.9873E+05  0.000E+00  0.000E+00  0.000E+00  4.75141E+01  2.073E-01  2.000E+01  2.000E+04 -1.657E+00
   1   15    4     1     4    1.9873E+05 -3.2385E+04   2.3112E+05  0.000E+00  0.000E+00  0.000E+00  4.70585E+01  2.289E-01  2.000E+01  2.000E+04 -1.619E+00
   1   16    5     1     5    2.3112E+05 -3.3898E+04   2.6502E+05  0.000E+00  0.000E+00  0.000E+00  4.66018E+01  2.495E-01  2.000E+01  2.000E+04 -1.695E+00
   1   16    6     1     6    2.6502E+05 -2.9628E+04   2.9464E+05  0.000E+00  0.000E+00  0.000E+00  4.61432E+01  2.682E-01  2.000E+01  2.000E+04 -1.481E+00
   1   16    7     1     7    2.9464E+05 -2.9461E+04   3.2410E+05  0.000E+00  0.000E+00  0.000E+00  4.56826E+01  2.848E-01  2.000E+01  2.000E+04 -1.473E+00
   1   16    8     1     8    3.2410E+05 -2.9659E+04   3.5376E+05  0.000E+00  0.000E+00  0.000E+00  4.52213E+01  3.009E-01  2.000E+01  2.000E+04 -1.483E+00
   1   16    9     1     9    3.5376E+05 -2.9757E+04   3.8352E+05  0.000E+00  0.000E+00  0.000E+00  4.47596E+01  3.164E-01  2.000E+01  2.000E+04 -1.488E+00
   1   16   10     1    10    3.8352E+05 -2.9807E+04   4.1333E+05  0.000E+00  0.000E+00  0.000E+00  4.42974E+01  3.315E-01  2.000E+01  2.000E+04 -1.490E+00
   1   16   11     1    11    4.1333E+05 -3.0441E+04   4.4377E+05  0.000E+00  0.000E+00  0.000E+00  4.38350E+01  3.464E-01  2.000E+01  2.000E+04 -1.522E+00
   1   16   12     1    12    4.4377E+05 -3.6023E+04   4.7979E+05  0.000E+00  0.000E+00  0.000E+00  4.33736E+01  3.622E-01  2.000E+01  2.000E+04 -1.801E+00
   1   15   13     1    13    4.7979E+05 -3.4785E+04   5.1458E+05  0.000E+00  0.000E+00  0.000E+00  4.29127E+01  3.786E-01  2.000E+01  2.000E+04 -1.739E+00
   1   14   14     1    14    5.1458E+05 -3.5382E+04   5.4996E+05  0.000E+00  0.000E+00  0.000E+00  4.24513E+01  3.945E-01  2.000E+01  2.000E+04 -1.769E+00
   1   13   15     1    15    5.4996E+05 -3.7602E+04   5.8756E+05  0.000E+00  0.000E+00  0.000E+00  4.19900E+01  4.105E-01  2.000E+01  2.000E+04 -1.880E+00
   1   12   16     1    16    5.8756E+05 -4.3631E+04   6.3119E+05  0.000E+00  0.000E+00  0.000E+00  4.15301E+01  4.278E-01  2.000E+01  2.000E+04 -2.182E+00
   1   12   17     1    17    6.3119E+05 -3.4148E+04   6.6534E+05  0.000E+00  0.000E+00  0.000E+00  4.10690E+01  4.440E-01  2.000E+01  2.000E+04 -1.707E+00
   1   12   18     1    18    6.6534E+05 -3.2529E+04   6.9787E+05  0.000E+00  0.000E+00  0.000E+00  4.06053E+01  4.576E-01  2.000E+01  2.000E+04 -1.626E+00
   1   12   19     1    19    6.9787E+05 -3.6620E+04   7.3449E+05  0.000E+00  0.000E+00  0.000E+00  4.01418E+01  4.713E-01  2.000E+01  2.000E+04 -1.831E+00
   1   13   20     1    20    7.3449E+05 -2.6933E+04   7.6142E+05  0.000E+00  0.000E+00  0.000E+00  3.96770E+01  4.838E-01  2.000E+01  2.000E+04 -1.347E+00
   1   14   21     1    21    7.6142E+05 -1.9846E+04   7.8127E+05  0.000E+00  0.000E+00  0.000E+00  3.92087E+01  4.928E-01  2.000E+01  2.000E+04 -9.923E-01
   1   14   22     1    22    7.8127E+05 -1.7860E+03   7.8305E+05  0.000E+00  0.000E+00  0.000E+00  3.87356E+01  4.969E-01  2.000E+01  2.000E+04 -8.930E-02
   1    9   30     2     1    5.0000E+04 -2.6637E+04   7.6637E+04  0.000E+00  0.000E+00  0.000E+00  4.02585E+01  1.335E-01  2.000E+01  2.000E+04 -1.332E+00
   1    9   29     2     2    7.6637E+04 -2.9105E+04   1.0574E+05  0.000E+00  0.000E+00  0.000E+00  4.00412E+01  1.662E-01  2.000E+01  2.000E+04 -1.455E+00
   1    9   28     2     3    1.0574E+05 -3.3398E+04   1.3914E+05  0.000E+00  0.000E+00  0.000E+00  3.98233E+01  1.983E-01  2.000E+01  2.000E+04 -1.670E+00
   1    9   27     2     4    1.3914E+05 -4.7549E+04   1.8669E+05  0.000E+00  0.000E+00  0.000E+00  3.96104E+01  2.354E-01  2.000E+01  2.000E+04 -2.377E+00
   1   10   26     2     5    1.8669E+05 -3.3535E+04   2.2022E+05  0.000E+00  0.000E+00  0.000E+00  3.93939E+01  2.689E-01  2.000E+01  2.000E+04 -1.677E+00
   1   11   25     2     6    2.2022E+05 -2.5196E+04   2.4542E+05  0.000E+00  0.000E+00  0.000E+00  3.91666E+01  2.916E-01  2.000E+01  2.000E+04 -1.260E+00
   1   12   24     2     7    2.4542E+05 -1.8628E+04   2.6405E+05  0.000E+00  0.000E+00  0.000E+00  3.89328E+01  3.078E-01  2.000E+01  2.000E+04 -9.314E-01
   1   13   23     2     8    2.6405E+05 -1.3273E+04   2.7732E+05  0.000E+00  0.000E+00  0.000E+00  3.86942E+01  3.192E-01  2.000E+01  2.000E+04 -6.637E-01
   1   14   22     2     9    2.7732E+05 -7.4680E+03   2.8479E+05  0.000E+00  0.000E+00  0.000E+00  3.84515E+01  3.265E-01  2.000E+01  2.000E+04 -3.734E-01
   1   14   22     3     1    1.0678E+06 -1.5402E+04   1.0832E+06  0.000E+00  0.000E+00  0.000E+00  3.80548E+01  4.992E-01  2.000E+01  2.000E+04 -7.701E-01
   1   15   23     3     2    1.0832E+06 -2.3814E+04   1.1071E+06  0.000E+00  0.000E+00  0.000E+00  3.71713E+01  5.046E-01  2.000E+01  2.000E+04 -1.191E+00
   1   15   24     3     3    1.1071E+06 -1.9819E+04   1.1269E+06  0.000E+00  0.000E+00  0.000E+00  3.62884E+01  5.107E-01  2.000E+01  2.000E+04 -9.909E-01
   1   15   25     3     4    1.1269E+06 -1.9409E+04   1.1463E+06  0.000E+00  0.000E+00  0.000E+00  3.54049E+01  5.160E-01  2.000E+01  2.000E+04 -9.705E-01
   1   15   26     3     5    1.1463E+06 -2.2171E+04   1.1685E+06  0.000E+00  0.000E+00  0.000E+00  3.45217E+01  5.217E-01  2.000E+01  2.000E+04 -1.109E+00
   1   16   27     3     6    1.1685E+06 -2.9365E+04   1.1978E+06  0.000E+00  0.000E+00  0.000E+00  3.36397E+01  5.286E-01  2.000E+01  2.000E+04 -1.468E+00
   1   17   28     3     7    1.1978E+06 -3.6428E+04   1.2343E+06  0.000E+00  0.000E+00  0.000E+00  3.27596E+01  5.374E-01  2.000E+01  2.000E+04 -1.821E+00
   1   18   29     3     8    1.2343E+06 -4.7414E+04   1.2817E+06  0.000E+00  0.000E+00  0.000E+00  3.18817E+01  5.484E-01  2.000E+01  2.000E+04 -2.371E+00
   1   18   30     3     9    1.2817E+06 -4.3820E+04   1.3255E+06  0.000E+00  0.000E+00  0.000E+00  3.10047E+01  5.603E-01  2.000E+01  2.000E+04 -2.191E+00




 HEAD WILL BE SAVED ON UNIT   51 AT END OF TIME STEP    1, STRESS PERIOD    8
1
  VOLUMETRIC BUDGET FOR ENTIRE MODEL AT END OF TIME STEP    1, STRESS PERIOD   8
  ------------------------------------------------------------------------------

     CUMULATIVE VOLUMES      L**3       RATES FOR THIS TIME STEP      L**3/T
     ------------------                 ------------------------

           IN:                                      IN:
           ---                                      ---
             STORAGE =    20075370.0000               STORAGE =           0.0000
       CONSTANT HEAD =   833698176.0000         CONSTANT HEAD =     1149056.3750
               WELLS =           0.0000                 WELLS =           0.0000
            RECHARGE =    17608800.0000              RECHARGE =       27600.0000
      STREAM LEAKAGE =           0.0000        STREAM LEAKAGE =           0.0000

            TOTAL IN =   871382400.0000              TOTAL IN =     1176656.3750

          OUT:                                     OUT:
          ----                                     ----
             STORAGE =      386050.9688               STORAGE =        1168.5276
       CONSTANT HEAD =           0.0000         CONSTANT HEAD =           0.0000
               WELLS =           0.0000                 WELLS =           0.0000
            RECHARGE =           0.0000              RECHARGE =           0.0000
      STREAM LEAKAGE =   870996160.0000        STREAM LEAKAGE =     1175486.8750

           TOTAL OUT =   871382208.0000             TOTAL OUT =     1176655.3750

            IN - OUT =         192.0000              IN - OUT =           1.0000

 PERCENT DISCREPANCY =           0.00     PERCENT DISCREPANCY =           0.00






         TIME SUMMARY AT END OF TIME STEP    1 IN STRESS PERIOD    8
                    SECONDS     MINUTES      HOURS       DAYS        YEARS
                    -----------------------------------------------------------
   TIME STEP LENGTH 7.86240E+06 1.31040E+05  2184.0      91.000     0.24914    
 STRESS PERIOD TIME 7.86240E+06 1.31040E+05  2184.0      91.000     0.24914    
         TOTAL TIME 6.30720E+07 1.05120E+06  17520.      730.00      1.9986    
1
1
                            STRESS PERIOD NO.    9, LENGTH =   92.00000    
                            -----------------------------------------------

                              NUMBER OF TIME STEPS =     1

                               MULTIPLIER FOR DELT =     1.500

                            INITIAL TIME STEP SIZE =   92.00000    

 WELL NO.  LAYER   ROW   COL   STRESS RATE         
 --------------------------------------------------
      1      1      2      1       0.000    
      2      1      2      2       0.000    
      3      1      2      3       0.000    
      4      1      2      4       0.000    
      5      1      2      5       0.000    
      6      1      2      6       0.000    
      7      1      2      7       0.000    
      8      1      2      8       0.000    
      9      1      2      9       0.000    
     10      1      2     10       0.000    
     11      1      2     11       0.000    
     12      1      2     12       0.000    
     13      1      2     13       0.000    
     14      1      2     14       0.000    
     15      1      2     15       0.000    
     16      1      2     16       0.000    
     17      1      2     17       0.000    
     18      1      2     18       0.000    
     19      1      2     19       0.000    
     20      1      2     20       0.000    
     21      1      2     21       0.000    
     22      1      2     22       0.000    
     23      1      2     23       0.000    
     24      1      2     24       0.000    
     25      1      2     25       0.000    
     26      1      2     26       0.000    
     27      1      2     27       0.000    
     28      1      2     28       0.000    
     29      1      2     29       0.000    
     30      1      2     30       0.000    
     31      1      3      1       0.000    
     32      1      3      2       0.000    
     33      1      3      3       0.000    
     34      1      3      4       0.000    
     35      1      3      5       0.000    
     36      1      3      6       0.000    
     37      1      3      7       0.000    
     38      1      3      8       0.000    
     39      1      3      9       0.000    
     40      1      3     10       0.000    
     41      1      3     11       0.000    
     42      1      3     12       0.000    
     43      1      3     13       0.000    
     44      1      3     14       0.000    
     45      1      3     15       0.000    
     46      1      3     16       0.000    
     47      1      3     17       0.000    
     48      1      3     18       0.000    
     49      1      3     19       0.000    
     50      1      3     20       0.000    
     51      1      3     21       0.000    
     52      1      3     22       0.000    
     53      1      3     23       0.000    
     54      1      3     24       0.000    
     55      1      3     25       0.000    
     56      1      3     26       0.000    
     57      1      3     27       0.000    
     58      1      3     28       0.000    
     59      1      3     29       0.000    
     60      1      3     30       0.000    
     61      1      4      1       0.000    
     62      1      4      2       0.000    
     63      1      4      3       0.000    
     64      1      4      4       0.000    
     65      1      4      5       0.000    
     66      1      4      6       0.000    
     67      1      4      7       0.000    
     68      1      4      8       0.000    
     69      1      4      9       0.000    
     70      1      4     10       0.000    
     71      1      4     11       0.000    
     72      1      4     12       0.000    
     73      1      4     13       0.000    
     74      1      4     14       0.000    
     75      1      4     15       0.000    
     76      1      4     16       0.000    
     77      1      4     17       0.000    
     78      1      4     18       0.000    
     79      1      4     19       0.000    
     80      1      4     20       0.000    
     81      1      4     21       0.000    
     82      1      4     22       0.000    
     83      1      4     23       0.000    
     84      1      4     24       0.000    
     85      1      4     25       0.000    
     86      1      4     26       0.000    
     87      1      4     27       0.000    
     88      1      4     28       0.000    
     89      1      4     29       0.000    
     90      1      4     30       0.000    
     91      1      5      1       0.000    
     92      1      5      2       0.000    
     93      1      5      3       0.000    
     94      1      5      4       0.000    
     95      1      5      5       0.000    
     96      1      5      6       0.000    
     97      1      5      7       0.000    
     98      1      5      8       0.000    
     99      1      5      9       0.000    
    100      1      5     10       0.000    
    101      1      5     11       0.000    
    102      1      5     12       0.000    
    103      1      5     13       0.000    
    104      1      5     14       0.000    
    105      1      5     15       0.000    
    106      1      5     16       0.000    
    107      1      5     17       0.000    
    108      1      5     18       0.000    
    109      1      5     19       0.000    
    110      1      5     20       0.000    
    111      1      5     21       0.000    
    112      1      5     22       0.000    
    113      1      5     23       0.000    
    114      1      5     24       0.000    
    115      1      5     25       0.000    
    116      1      5     26       0.000    
    117      1      5     27       0.000    
    118      1      5     28       0.000    
    119      1      5     29       0.000    
    120      1      5     30       0.000    
    121      1      6      1       0.000    
    122      1      6      2       0.000    
    123      1      6      3       0.000    
    124      1      6      4       0.000    
    125      1      6      5       0.000    
    126      1      6      6       0.000    
    127      1      6      7       0.000    
    128      1      6      8       0.000    
    129      1      6      9       0.000    
    130      1      6     10       0.000    
    131      1      6     11       0.000    
    132      1      6     12       0.000    
    133      1      6     13       0.000    
    134      1      6     14       0.000    
    135      1      6     15       0.000    
    136      1      6     16       0.000    
    137      1      6     17       0.000    
    138      1      6     18       0.000    
    139      1      6     19       0.000    
    140      1      6     20       0.000    
    141      1      6     21       0.000    
    142      1      6     22       0.000    
    143      1      6     23       0.000    
    144      1      6     24       0.000    
    145      1      6     25       0.000    
    146      1      6     26       0.000    
    147      1      6     27       0.000    
    148      1      6     28       0.000    
    149      1      6     29       0.000    
    150      1      6     30       0.000    
    151      1      7      1       0.000    
    152      1      7      2       0.000    
    153      1      7      3       0.000    
    154      1      7      4       0.000    
    155      1      7      5       0.000    
    156      1      7      6       0.000    
    157      1      7      7       0.000    
    158      1      7      8       0.000    
    159      1      7      9       0.000    
    160      1      7     10       0.000    
    161      1      7     11       0.000    
    162      1      7     12       0.000    
    163      1      7     13       0.000    
    164      1      7     14       0.000    
    165      1      7     15       0.000    
    166      1      7     16       0.000    
    167      1      7     17       0.000    
    168      1      7     18       0.000    
    169      1      7     19       0.000    
    170      1      7     20       0.000    
    171      1      7     21       0.000    
    172      1      7     22       0.000    
    173      1      7     23       0.000    
    174      1      7     24       0.000    
    175      1      7     25       0.000    
    176      1      7     26       0.000    
    177      1      7     27       0.000    
    178      1      7     28       0.000    
    179      1      7     29       0.000    
    180      1      7     30       0.000    
    181      1      8      1       0.000    
    182      1      8      2       0.000    
    183      1      8      3       0.000    
    184      1      8      4       0.000    
    185      1      8      5       0.000    
    186      1      8      6       0.000    
    187      1      8      7       0.000    
    188      1      8      8       0.000    
    189      1      8      9       0.000    
    190      1      8     10       0.000    
    191      1      8     11       0.000    
    192      1      8     12       0.000    
    193      1      8     13       0.000    
    194      1      8     14       0.000    
    195      1      8     15       0.000    
    196      1      8     16       0.000    
    197      1      8     17       0.000    
    198      1      8     18       0.000    
    199      1      8     19       0.000    
    200      1      8     20       0.000    
    201      1      8     21       0.000    
    202      1      8     22       0.000    
    203      1      8     23       0.000    
    204      1      8     24       0.000    
    205      1      8     25       0.000    
    206      1      8     26       0.000    
    207      1      8     27       0.000    
    208      1      8     28       0.000    
    209      1      8     29       0.000    
    210      1      8     30       0.000    
    211      1      9      1       0.000    
    212      1      9      2       0.000    
    213      1      9      3       0.000    
    214      1      9      4       0.000    
    215      1      9      5       0.000    
    216      1      9      6       0.000    
    217      1      9      7       0.000    
    218      1      9      8       0.000    
    219      1      9      9       0.000    
    220      1      9     10       0.000    
    221      1      9     11       0.000    
    222      1      9     12       0.000    
    223      1      9     13       0.000    
    224      1      9     14       0.000    
    225      1      9     15       0.000    
    226      1      9     16       0.000    
    227      1      9     17       0.000    
    228      1      9     18       0.000    
    229      1      9     19       0.000    
    230      1      9     20       0.000    
    231      1      9     21       0.000    
    232      1      9     22       0.000    
    233      1      9     23       0.000    
    234      1      9     24       0.000    
    235      1      9     25       0.000    
    236      1      9     26       0.000    
    237      1      9     27       0.000    
    238      1      9     28       0.000    
    239      1      9     29       0.000    
    240      1      9     30       0.000    
    241      1     10      1       0.000    
    242      1     10      2       0.000    
    243      1     10      3       0.000    
    244      1     10      4       0.000    
    245      1     10      5       0.000    
    246      1     10      6       0.000    
    247      1     10      7       0.000    
    248      1     10      8       0.000    
    249      1     10      9       0.000    
    250      1     10     10       0.000    
    251      1     10     11       0.000    
    252      1     10     12       0.000    
    253      1     10     13       0.000    
    254      1     10     14       0.000    
    255      1     10     15       0.000    
    256      1     10     16       0.000    
    257      1     10     17       0.000    
    258      1     10     18       0.000    
    259      1     10     19       0.000    
    260      1     10     20       0.000    
    261      1     10     21       0.000    
    262      1     10     22       0.000    
    263      1     10     23       0.000    
    264      1     10     24       0.000    
    265      1     10     25       0.000    
    266      1     10     26       0.000    
    267      1     10     27       0.000    
    268      1     10     28       0.000    
    269      1     10     29       0.000    
    270      1     10     30       0.000    
    271      1     11      1       0.000    
    272      1     11      2       0.000    
    273      1     11      3       0.000    
    274      1     11      4       0.000    
    275      1     11      5       0.000    
    276      1     11      6       0.000    
    277      1     11      7       0.000    
    278      1     11      8       0.000    
    279      1     11      9       0.000    
    280      1     11     10       0.000    
    281      1     11     11       0.000    
    282      1     11     12       0.000    
    283      1     11     13       0.000    
    284      1     11     14       0.000    
    285      1     11     15       0.000    
    286      1     11     16       0.000    
    287      1     11     17       0.000    
    288      1     11     18       0.000    
    289      1     11     19       0.000    
    290      1     11     20       0.000    
    291      1     11     21       0.000    
    292      1     11     22       0.000    
    293      1     11     23       0.000    
    294      1     11     24       0.000    
    295      1     11     25       0.000    
    296      1     11     26       0.000    
    297      1     11     27       0.000    
    298      1     11     28       0.000    
    299      1     11     29       0.000    
    300      1     11     30       0.000    
    301      1     12      1       0.000    
    302      1     12      2       0.000    
    303      1     12      3       0.000    
    304      1     12      4       0.000    
    305      1     12      5       0.000    
    306      1     12      6       0.000    
    307      1     12      7       0.000    
    308      1     12      8       0.000    
    309      1     12      9       0.000    
    310      1     12     10       0.000    
    311      1     12     11       0.000    
    312      1     12     12       0.000    
    313      1     12     13       0.000    
    314      1     12     14       0.000    
    315      1     12     15       0.000    
    316      1     12     16       0.000    
    317      1     12     17       0.000    
    318      1     12     18       0.000    
    319      1     12     19       0.000    
    320      1     12     20       0.000    
    321      1     12     21       0.000    
    322      1     12     22       0.000    
    323      1     12     23       0.000    
    324      1     12     24       0.000    
    325      1     12     25       0.000    
    326      1     12     26       0.000    
    327      1     12     27       0.000    
    328      1     12     28       0.000    
    329      1     12     29       0.000    
    330      1     12     30       0.000    
    331      1     13      1       0.000    
    332      1     13      2       0.000    
    333      1     13      3       0.000    
    334      1     13      4       0.000    
    335      1     13      5       0.000    
    336      1     13      6       0.000    
    337      1     13      7       0.000    
    338      1     13      8       0.000    
    339      1     13      9       0.000    
    340      1     13     10       0.000    
    341      1     13     11       0.000    
    342      1     13     12       0.000    
    343      1     13     13       0.000    
    344      1     13     14       0.000    
    345      1     13     15       0.000    
    346      1     13     16       0.000    
    347      1     13     17       0.000    
    348      1     13     18       0.000    
    349      1     13     19       0.000    
    350      1     13     20       0.000    
    351      1     13     21       0.000    
    352      1     13     22       0.000    
    353      1     13     23       0.000    
    354      1     13     24       0.000    
    355      1     13     25       0.000    
    356      1     13     26       0.000    
    357      1     13     27       0.000    
    358      1     13     28       0.000    
    359      1     13     29       0.000    
    360      1     13     30       0.000    
    361      1     14      1       0.000    
    362      1     14      2       0.000    
    363      1     14      3       0.000    
    364      1     14      4       0.000    
    365      1     14      5       0.000    
    366      1     14      6       0.000    
    367      1     14      7       0.000    
    368      1     14      8       0.000    
    369      1     14      9       0.000    
    370      1     14     10       0.000    
    371      1     14     11       0.000    
    372      1     14     12       0.000    
    373      1     14     13       0.000    
    374      1     14     14       0.000    
    375      1     14     15       0.000    
    376      1     14     16       0.000    
    377      1     14     17       0.000    
    378      1     14     18       0.000    
    379      1     14     19       0.000    
    380      1     14     20       0.000    
    381      1     14     21       0.000    
    382      1     14     22       0.000    
    383      1     14     23       0.000    
    384      1     14     24       0.000    
    385      1     14     25       0.000    
    386      1     14     26       0.000    
    387      1     14     27       0.000    
    388      1     14     28       0.000    
    389      1     14     29       0.000    
    390      1     14     30       0.000    
    391      1     15      1       0.000    
    392      1     15      2       0.000    
    393      1     15      3       0.000    
    394      1     15      4       0.000    
    395      1     15      5       0.000    
    396      1     15      6       0.000    
    397      1     15      7       0.000    
    398      1     15      8       0.000    
    399      1     15      9       0.000    
    400      1     15     10       0.000    
    401      1     15     11       0.000    
    402      1     15     12       0.000    
    403      1     15     13       0.000    
    404      1     15     14       0.000    
    405      1     15     15       0.000    
    406      1     15     16       0.000    
    407      1     15     17       0.000    
    408      1     15     18       0.000    
    409      1     15     19       0.000    
    410      1     15     20       0.000    
    411      1     15     21       0.000    
    412      1     15     22       0.000    
    413      1     15     23       0.000    
    414      1     15     24       0.000    
    415      1     15     25       0.000    
    416      1     15     26       0.000    
    417      1     15     27       0.000    
    418      1     15     28       0.000    
    419      1     15     29       0.000    
    420      1     15     30       0.000    
    421      1     16      1       0.000    
    422      1     16      2       0.000    
    423      1     16      3       0.000    
    424      1     16      4       0.000    
    425      1     16      5       0.000    
    426      1     16      6       0.000    
    427      1     16      7       0.000    
    428      1     16      8       0.000    
    429      1     16      9       0.000    
    430      1     16     10       0.000    
    431      1     16     11       0.000    
    432      1     16     12       0.000    
    433      1     16     13       0.000    
    434      1     16     14       0.000    
    435      1     16     15       0.000    
    436      1     16     16       0.000    
    437      1     16     17       0.000    
    438      1     16     18       0.000    
    439      1     16     19       0.000    
    440      1     16     20       0.000    
    441      1     16     21       0.000    
    442      1     16     22       0.000    
    443      1     16     23       0.000    
    444      1     16     24       0.000    
    445      1     16     25       0.000    
    446      1     16     26       0.000    
    447      1     16     27       0.000    
    448      1     16     28       0.000    
    449      1     16     29       0.000    
    450      1     16     30       0.000    
    451      1     17      1       0.000    
    452      1     17      2       0.000    
    453      1     17      3       0.000    
    454      1     17      4       0.000    
    455      1     17      5       0.000    
    456      1     17      6       0.000    
    457      1     17      7       0.000    
    458      1     17      8       0.000    
    459      1     17      9       0.000    
    460      1     17     10       0.000    
    461      1     17     11       0.000    
    462      1     17     12       0.000    
    463      1     17     13       0.000    
    464      1     17     14       0.000    
    465      1     17     15       0.000    
    466      1     17     16       0.000    
    467      1     17     17       0.000    
    468      1     17     18       0.000    
    469      1     17     19       0.000    
    470      1     17     20       0.000    
    471      1     17     21       0.000    
    472      1     17     22       0.000    
    473      1     17     23       0.000    
    474      1     17     24       0.000    
    475      1     17     25       0.000    
    476      1     17     26       0.000    
    477      1     17     27       0.000    
    478      1     17     28       0.000    
    479      1     17     29       0.000    
    480      1     17     30       0.000    
    481      1     18      1       0.000    
    482      1     18      2       0.000    
    483      1     18      3       0.000    
    484      1     18      4       0.000    
    485      1     18      5       0.000    
    486      1     18      6       0.000    
    487      1     18      7       0.000    
    488      1     18      8       0.000    
    489      1     18      9       0.000    
    490      1     18     10       0.000    
    491      1     18     11       0.000    
    492      1     18     12       0.000    
    493      1     18     13       0.000    
    494      1     18     14       0.000    
    495      1     18     15       0.000    
    496      1     18     16       0.000    
    497      1     18     17       0.000    
    498      1     18     18       0.000    
    499      1     18     19       0.000    
    500      1     18     20       0.000    
    501      1     18     21       0.000    
    502      1     18     22       0.000    
    503      1     18     23       0.000    
    504      1     18     24       0.000    
    505      1     18     25       0.000    
    506      1     18     26       0.000    
    507      1     18     27       0.000    
    508      1     18     28       0.000    
    509      1     18     29       0.000    
    510      1     18     30       0.000    
    511      1     19      1       0.000    
    512      1     19      2       0.000    
    513      1     19      3       0.000    
    514      1     19      4       0.000    
    515      1     19      5       0.000    
    516      1     19      6       0.000    
    517      1     19      7       0.000    
    518      1     19      8       0.000    
    519      1     19      9       0.000    
    520      1     19     10       0.000    
    521      1     19     11       0.000    
    522      1     19     12       0.000    
    523      1     19     13       0.000    
    524      1     19     14       0.000    
    525      1     19     15       0.000    
    526      1     19     16       0.000    
    527      1     19     17       0.000    
    528      1     19     18       0.000    
    529      1     19     19       0.000    
    530      1     19     20       0.000    
    531      1     19     21       0.000    
    532      1     19     22       0.000    
    533      1     19     23       0.000    
    534      1     19     24       0.000    
    535      1     19     25       0.000    
    536      1     19     26       0.000    
    537      1     19     27       0.000    
    538      1     19     28       0.000    
    539      1     19     29       0.000    
    540      1     19     30       0.000    
    541      1     20      1       0.000    
    542      1     20      2       0.000    
    543      1     20      3       0.000    
    544      1     20      4       0.000    
    545      1     20      5       0.000    
    546      1     20      6       0.000    
    547      1     20      7       0.000    
    548      1     20      8       0.000    
    549      1     20      9       0.000    
    550      1     20     10       0.000    
    551      1     20     11       0.000    
    552      1     20     12       0.000    
    553      1     20     13       0.000    
    554      1     20     14       0.000    
    555      1     20     15       0.000    
    556      1     20     16       0.000    
    557      1     20     17       0.000    
    558      1     20     18       0.000    
    559      1     20     19       0.000    
    560      1     20     20       0.000    
    561      1     20     21       0.000    
    562      1     20     22       0.000    
    563      1     20     23       0.000    
    564      1     20     24       0.000    
    565      1     20     25       0.000    
    566      1     20     26       0.000    
    567      1     20     27       0.000    
    568      1     20     28       0.000    
    569      1     20     29       0.000    
    570      1     20     30       0.000    
    571      1     21      1       0.000    
    572      1     21      2       0.000    
    573      1     21      3       0.000    
    574      1     21      4       0.000    
    575      1     21      5       0.000    
    576      1     21      6       0.000    
    577      1     21      7       0.000    
    578      1     21      8       0.000    
    579      1     21      9       0.000    
    580      1     21     10       0.000    
    581      1     21     11       0.000    
    582      1     21     12       0.000    
    583      1     21     13       0.000    
    584      1     21     14       0.000    
    585      1     21     15       0.000    
    586      1     21     16       0.000    
    587      1     21     17       0.000    
    588      1     21     18       0.000    
    589      1     21     19       0.000    
    590      1     21     20       0.000    
    591      1     21     21       0.000    
    592      1     21     22       0.000    
    593      1     21     23       0.000    
    594      1     21     24       0.000    
    595      1     21     25       0.000    
    596      1     21     26       0.000    
    597      1     21     27       0.000    
    598      1     21     28       0.000    
    599      1     21     29       0.000    
    600      1     21     30       0.000    
    601      1     22      1       0.000    
    602      1     22      2       0.000    
    603      1     22      3       0.000    
    604      1     22      4       0.000    
    605      1     22      5       0.000    
    606      1     22      6       0.000    
    607      1     22      7       0.000    
    608      1     22      8       0.000    
    609      1     22      9       0.000    
    610      1     22     10       0.000    
    611      1     22     11       0.000    
    612      1     22     12       0.000    
    613      1     22     13       0.000    
    614      1     22     14       0.000    
    615      1     22     15       0.000    
    616      1     22     16       0.000    
    617      1     22     17       0.000    
    618      1     22     18       0.000    
    619      1     22     19       0.000    
    620      1     22     20       0.000    
    621      1     22     21       0.000    
    622      1     22     22       0.000    
    623      1     22     23       0.000    
    624      1     22     24       0.000    
    625      1     22     25       0.000    
    626      1     22     26       0.000    
    627      1     22     27       0.000    
    628      1     22     28       0.000    
    629      1     22     29       0.000    
    630      1     22     30       0.000    
    631      1     23      1       0.000    
    632      1     23      2       0.000    
    633      1     23      3       0.000    
    634      1     23      4       0.000    
    635      1     23      5       0.000    
    636      1     23      6       0.000    
    637      1     23      7       0.000    
    638      1     23      8       0.000    
    639      1     23      9       0.000    
    640      1     23     10       0.000    
    641      1     23     11       0.000    
    642      1     23     12       0.000    
    643      1     23     13       0.000    
    644      1     23     14       0.000    
    645      1     23     15       0.000    
    646      1     23     16       0.000    
    647      1     23     17       0.000    
    648      1     23     18       0.000    
    649      1     23     19       0.000    
    650      1     23     20       0.000    
    651      1     23     21       0.000    
    652      1     23     22       0.000    
    653      1     23     23       0.000    
    654      1     23     24       0.000    
    655      1     23     25       0.000    
    656      1     23     26       0.000    
    657      1     23     27       0.000    
    658      1     23     28       0.000    
    659      1     23     29       0.000    
    660      1     23     30       0.000    
    661      1     24      1       0.000    
    662      1     24      2       0.000    
    663      1     24      3       0.000    
    664      1     24      4       0.000    
    665      1     24      5       0.000    
    666      1     24      6       0.000    
    667      1     24      7       0.000    
    668      1     24      8       0.000    
    669      1     24      9       0.000    
    670      1     24     10       0.000    
    671      1     24     11       0.000    
    672      1     24     12       0.000    
    673      1     24     13       0.000    
    674      1     24     14       0.000    
    675      1     24     15       0.000    
    676      1     24     16       0.000    
    677      1     24     17       0.000    
    678      1     24     18       0.000    
    679      1     24     19       0.000    
    680      1     24     20       0.000    
    681      1     24     21       0.000    
    682      1     24     22       0.000    
    683      1     24     23       0.000    
    684      1     24     24       0.000    
    685      1     24     25       0.000    
    686      1     24     26       0.000    
    687      1     24     27       0.000    
    688      1     24     28       0.000    
    689      1     24     29       0.000    
    690      1     24     30       0.000    

    690 WELLS

                 RECHARGE =  5.000000E-04

 REUSING STREAM SEGMENT DATA FROM LAST STRESS PERIOD

 SOLVING FOR HEAD 


     5 CALLS TO PCG ROUTINE FOR TIME STEP   1 IN STRESS PERIOD    9
    17 TOTAL ITERATIONS

 OUTPUT CONTROL FOR STRESS PERIOD    9   TIME STEP    1
    SAVE HEAD FOR ALL LAYERS
    SAVE BUDGET



 STREAM LISTING     PERIOD      9   STEP        1

 LAYER ROW COL. STREAM  RCH.  FLOW INTO     FLOW TO   FLOW OUT OF   OVRLND.     DIRECT     STREAM       STREAM     STREAM     STREAM   STREAMBED  STREAMBED
                SEG.NO.  NO.  STRM. RCH.    AQUIFER    STRM. RCH.    RUNOFF     PRECIP       ET          HEAD       DEPTH      WIDTH   CONDCTNC.   GRADIENT

   1   13    1     1     1    1.0000E+05 -2.7713E+04   1.2771E+05  0.000E+00  0.000E+00  0.000E+00  4.84177E+01  1.564E-01  2.000E+01  2.000E+04 -1.386E+00
   1   13    2     1     2    1.2771E+05 -3.7436E+04   1.6515E+05  0.000E+00  0.000E+00  0.000E+00  4.79659E+01  1.818E-01  2.000E+01  2.000E+04 -1.872E+00
   1   14    3     1     3    1.6515E+05 -3.2916E+04   1.9806E+05  0.000E+00  0.000E+00  0.000E+00  4.75137E+01  2.069E-01  2.000E+01  2.000E+04 -1.646E+00
   1   15    4     1     4    1.9806E+05 -3.2159E+04   2.3022E+05  0.000E+00  0.000E+00  0.000E+00  4.70580E+01  2.284E-01  2.000E+01  2.000E+04 -1.608E+00
   1   16    5     1     5    2.3022E+05 -3.3694E+04   2.6392E+05  0.000E+00  0.000E+00  0.000E+00  4.66012E+01  2.489E-01  2.000E+01  2.000E+04 -1.685E+00
   1   16    6     1     6    2.6392E+05 -2.9451E+04   2.9337E+05  0.000E+00  0.000E+00  0.000E+00  4.61425E+01  2.675E-01  2.000E+01  2.000E+04 -1.473E+00
   1   16    7     1     7    2.9337E+05 -2.9286E+04   3.2265E+05  0.000E+00  0.000E+00  0.000E+00  4.56818E+01  2.841E-01  2.000E+01  2.000E+04 -1.464E+00
   1   16    8     1     8    3.2265E+05 -2.9483E+04   3.5214E+05  0.000E+00  0.000E+00  0.000E+00  4.52205E+01  3.001E-01  2.000E+01  2.000E+04 -1.474E+00
   1   16    9     1     9    3.5214E+05 -2.9582E+04   3.8172E+05  0.000E+00  0.000E+00  0.000E+00  4.47587E+01  3.156E-01  2.000E+01  2.000E+04 -1.479E+00
   1   16   10     1    10    3.8172E+05 -2.9631E+04   4.1135E+05  0.000E+00  0.000E+00  0.000E+00  4.42965E+01  3.306E-01  2.000E+01  2.000E+04 -1.482E+00
   1   16   11     1    11    4.1135E+05 -3.0263E+04   4.4161E+05  0.000E+00  0.000E+00  0.000E+00  4.38340E+01  3.454E-01  2.000E+01  2.000E+04 -1.513E+00
   1   16   12     1    12    4.4161E+05 -3.5816E+04   4.7743E+05  0.000E+00  0.000E+00  0.000E+00  4.33725E+01  3.612E-01  2.000E+01  2.000E+04 -1.791E+00
   1   15   13     1    13    4.7743E+05 -3.4557E+04   5.1199E+05  0.000E+00  0.000E+00  0.000E+00  4.29116E+01  3.775E-01  2.000E+01  2.000E+04 -1.728E+00
   1   14   14     1    14    5.1199E+05 -3.5147E+04   5.4713E+05  0.000E+00  0.000E+00  0.000E+00  4.24501E+01  3.933E-01  2.000E+01  2.000E+04 -1.757E+00
   1   13   15     1    15    5.4713E+05 -3.7369E+04   5.8450E+05  0.000E+00  0.000E+00  0.000E+00  4.19887E+01  4.092E-01  2.000E+01  2.000E+04 -1.868E+00
   1   12   16     1    16    5.8450E+05 -4.3407E+04   6.2791E+05  0.000E+00  0.000E+00  0.000E+00  4.15288E+01  4.265E-01  2.000E+01  2.000E+04 -2.170E+00
   1   12   17     1    17    6.2791E+05 -3.3967E+04   6.6188E+05  0.000E+00  0.000E+00  0.000E+00  4.10676E+01  4.426E-01  2.000E+01  2.000E+04 -1.698E+00
   1   12   18     1    18    6.6188E+05 -3.2355E+04   6.9423E+05  0.000E+00  0.000E+00  0.000E+00  4.06039E+01  4.561E-01  2.000E+01  2.000E+04 -1.618E+00
   1   12   19     1    19    6.9423E+05 -3.6429E+04   7.3066E+05  0.000E+00  0.000E+00  0.000E+00  4.01403E+01  4.699E-01  2.000E+01  2.000E+04 -1.821E+00
   1   13   20     1    20    7.3066E+05 -2.6754E+04   7.5741E+05  0.000E+00  0.000E+00  0.000E+00  3.96754E+01  4.823E-01  2.000E+01  2.000E+04 -1.338E+00
   1   14   21     1    21    7.5741E+05 -1.9691E+04   7.7710E+05  0.000E+00  0.000E+00  0.000E+00  3.92071E+01  4.912E-01  2.000E+01  2.000E+04 -9.845E-01
   1   14   22     1    22    7.7710E+05 -1.7309E+03   7.7883E+05  0.000E+00  0.000E+00  0.000E+00  3.87340E+01  4.953E-01  2.000E+01  2.000E+04 -8.654E-02
   1    9   30     2     1    5.0000E+04 -2.6496E+04   7.6496E+04  0.000E+00  0.000E+00  0.000E+00  4.02584E+01  1.334E-01  2.000E+01  2.000E+04 -1.325E+00
   1    9   29     2     2    7.6496E+04 -2.8964E+04   1.0546E+05  0.000E+00  0.000E+00  0.000E+00  4.00409E+01  1.659E-01  2.000E+01  2.000E+04 -1.448E+00
   1    9   28     2     3    1.0546E+05 -3.3253E+04   1.3871E+05  0.000E+00  0.000E+00  0.000E+00  3.98230E+01  1.980E-01  2.000E+01  2.000E+04 -1.663E+00
   1    9   27     2     4    1.3871E+05 -4.7372E+04   1.8608E+05  0.000E+00  0.000E+00  0.000E+00  3.96099E+01  2.349E-01  2.000E+01  2.000E+04 -2.369E+00
   1   10   26     2     5    1.8608E+05 -3.3351E+04   2.1944E+05  0.000E+00  0.000E+00  0.000E+00  3.93934E+01  2.684E-01  2.000E+01  2.000E+04 -1.668E+00
   1   11   25     2     6    2.1944E+05 -2.5018E+04   2.4445E+05  0.000E+00  0.000E+00  0.000E+00  3.91659E+01  2.909E-01  2.000E+01  2.000E+04 -1.251E+00
   1   12   24     2     7    2.4445E+05 -1.8469E+04   2.6292E+05  0.000E+00  0.000E+00  0.000E+00  3.89320E+01  3.070E-01  2.000E+01  2.000E+04 -9.234E-01
   1   13   23     2     8    2.6292E+05 -1.3144E+04   2.7607E+05  0.000E+00  0.000E+00  0.000E+00  3.86933E+01  3.183E-01  2.000E+01  2.000E+04 -6.572E-01
   1   14   22     2     9    2.7607E+05 -7.3989E+03   2.8347E+05  0.000E+00  0.000E+00  0.000E+00  3.84506E+01  3.256E-01  2.000E+01  2.000E+04 -3.699E-01
   1   14   22     3     1    1.0623E+06 -1.5346E+04   1.0776E+06  0.000E+00  0.000E+00  0.000E+00  3.80532E+01  4.976E-01  2.000E+01  2.000E+04 -7.673E-01
   1   15   23     3     2    1.0776E+06 -2.3669E+04   1.1013E+06  0.000E+00  0.000E+00  0.000E+00  3.71697E+01  5.031E-01  2.000E+01  2.000E+04 -1.183E+00
   1   15   24     3     3    1.1013E+06 -1.9699E+04   1.1210E+06  0.000E+00  0.000E+00  0.000E+00  3.62868E+01  5.091E-01  2.000E+01  2.000E+04 -9.849E-01
   1   15   25     3     4    1.1210E+06 -1.9289E+04   1.1403E+06  0.000E+00  0.000E+00  0.000E+00  3.54033E+01  5.144E-01  2.000E+01  2.000E+04 -9.645E-01
   1   15   26     3     5    1.1403E+06 -2.2031E+04   1.1623E+06  0.000E+00  0.000E+00  0.000E+00  3.45200E+01  5.200E-01  2.000E+01  2.000E+04 -1.102E+00
   1   16   27     3     6    1.1623E+06 -2.9197E+04   1.1915E+06  0.000E+00  0.000E+00  0.000E+00  3.36380E+01  5.269E-01  2.000E+01  2.000E+04 -1.460E+00
   1   17   28     3     7    1.1915E+06 -3.6255E+04   1.2278E+06  0.000E+00  0.000E+00  0.000E+00  3.27579E+01  5.357E-01  2.000E+01  2.000E+04 -1.813E+00
   1   18   29     3     8    1.2278E+06 -4.7252E+04   1.2750E+06  0.000E+00  0.000E+00  0.000E+00  3.18800E+01  5.467E-01  2.000E+01  2.000E+04 -2.363E+00
   1   18   30     3     9    1.2750E+06 -4.3684E+04   1.3187E+06  0.000E+00  0.000E+00  0.000E+00  3.10030E+01  5.585E-01  2.000E+01  2.000E+04 -2.184E+00




 HEAD WILL BE SAVED ON UNIT   51 AT END OF TIME STEP    1, STRESS PERIOD    9
1
  VOLUMETRIC BUDGET FOR ENTIRE MODEL AT END OF TIME STEP    1, STRESS PERIOD   9
  ------------------------------------------------------------------------------

     CUMULATIVE VOLUMES      L**3       RATES FOR THIS TIME STEP      L**3/T
     ------------------                 ------------------------

           IN:                                      IN:
           ---                                      ---
             STORAGE =    20129076.0000               STORAGE =         583.7674
       CONSTANT HEAD =   939897152.0000         CONSTANT HEAD =     1154336.7500
               WELLS =           0.0000                 WELLS =           0.0000
            RECHARGE =    18878400.0000              RECHARGE =       13800.0000
      STREAM LEAKAGE =           0.0000        STREAM LEAKAGE =           0.0000

            TOTAL IN =   978904640.0000              TOTAL IN =     1168720.5000

          OUT:                                     OUT:
          ----                                     ----
             STORAGE =      386050.9688               STORAGE =           0.0000
       CONSTANT HEAD =           0.0000         CONSTANT HEAD =           0.0000
               WELLS =           0.0000                 WELLS =           0.0000
            RECHARGE =           0.0000              RECHARGE =           0.0000
      STREAM LEAKAGE =   978518592.0000        STREAM LEAKAGE =     1168722.2500

           TOTAL OUT =   978904640.0000             TOTAL OUT =     1168722.2500

            IN - OUT =           0.0000              IN - OUT =          -1.7500

 PERCENT DISCREPANCY =           0.00     PERCENT DISCREPANCY =          -0.00






         TIME SUMMARY AT END OF TIME STEP    1 IN STRESS PERIOD    9
                    SECONDS     MINUTES      HOURS       DAYS        YEARS
                    -----------------------------------------------------------
   TIME STEP LENGTH 7.94880E+06 1.32480E+05  2208.0      92.000     0.25188    
 STRESS PERIOD TIME 7.94880E+06 1.32480E+05  2208.0      92.000     0.25188    
         TOTAL TIME 7.10208E+07 1.18368E+06  19728.      822.00      2.2505    
1
1
                            STRESS PERIOD NO.   10, LENGTH =   91.00000    
                            -----------------------------------------------

                              NUMBER OF TIME STEPS =     1

                               MULTIPLIER FOR DELT =     1.500

                            INITIAL TIME STEP SIZE =   91.00000    

 WELL NO.  LAYER   ROW   COL   STRESS RATE         
 --------------------------------------------------
      1      1      2      1       0.000    
      2      1      2      2       0.000    
      3      1      2      3       0.000    
      4      1      2      4       0.000    
      5      1      2      5       0.000    
      6      1      2      6       0.000    
      7      1      2      7       0.000    
      8      1      2      8       0.000    
      9      1      2      9       0.000    
     10      1      2     10       0.000    
     11      1      2     11       0.000    
     12      1      2     12       0.000    
     13      1      2     13       0.000    
     14      1      2     14       0.000    
     15      1      2     15       0.000    
     16      1      2     16       0.000    
     17      1      2     17       0.000    
     18      1      2     18       0.000    
     19      1      2     19       0.000    
     20      1      2     20       0.000    
     21      1      2     21       0.000    
     22      1      2     22       0.000    
     23      1      2     23       0.000    
     24      1      2     24       0.000    
     25      1      2     25       0.000    
     26      1      2     26       0.000    
     27      1      2     27       0.000    
     28      1      2     28       0.000    
     29      1      2     29       0.000    
     30      1      2     30       0.000    
     31      1      3      1       0.000    
     32      1      3      2       0.000    
     33      1      3      3       0.000    
     34      1      3      4       0.000    
     35      1      3      5       0.000    
     36      1      3      6       0.000    
     37      1      3      7       0.000    
     38      1      3      8       0.000    
     39      1      3      9       0.000    
     40      1      3     10       0.000    
     41      1      3     11       0.000    
     42      1      3     12       0.000    
     43      1      3     13       0.000    
     44      1      3     14       0.000    
     45      1      3     15       0.000    
     46      1      3     16       0.000    
     47      1      3     17       0.000    
     48      1      3     18       0.000    
     49      1      3     19       0.000    
     50      1      3     20       0.000    
     51      1      3     21       0.000    
     52      1      3     22       0.000    
     53      1      3     23       0.000    
     54      1      3     24       0.000    
     55      1      3     25       0.000    
     56      1      3     26       0.000    
     57      1      3     27       0.000    
     58      1      3     28       0.000    
     59      1      3     29       0.000    
     60      1      3     30       0.000    
     61      1      4      1       0.000    
     62      1      4      2       0.000    
     63      1      4      3       0.000    
     64      1      4      4       0.000    
     65      1      4      5       0.000    
     66      1      4      6       0.000    
     67      1      4      7       0.000    
     68      1      4      8       0.000    
     69      1      4      9       0.000    
     70      1      4     10       0.000    
     71      1      4     11       0.000    
     72      1      4     12       0.000    
     73      1      4     13       0.000    
     74      1      4     14       0.000    
     75      1      4     15       0.000    
     76      1      4     16       0.000    
     77      1      4     17       0.000    
     78      1      4     18       0.000    
     79      1      4     19       0.000    
     80      1      4     20       0.000    
     81      1      4     21       0.000    
     82      1      4     22       0.000    
     83      1      4     23       0.000    
     84      1      4     24       0.000    
     85      1      4     25       0.000    
     86      1      4     26       0.000    
     87      1      4     27       0.000    
     88      1      4     28       0.000    
     89      1      4     29       0.000    
     90      1      4     30       0.000    
     91      1      5      1       0.000    
     92      1      5      2       0.000    
     93      1      5      3       0.000    
     94      1      5      4       0.000    
     95      1      5      5       0.000    
     96      1      5      6       0.000    
     97      1      5      7       0.000    
     98      1      5      8       0.000    
     99      1      5      9       0.000    
    100      1      5     10       0.000    
    101      1      5     11       0.000    
    102      1      5     12       0.000    
    103      1      5     13       0.000    
    104      1      5     14       0.000    
    105      1      5     15       0.000    
    106      1      5     16       0.000    
    107      1      5     17       0.000    
    108      1      5     18       0.000    
    109      1      5     19       0.000    
    110      1      5     20       0.000    
    111      1      5     21       0.000    
    112      1      5     22       0.000    
    113      1      5     23       0.000    
    114      1      5     24       0.000    
    115      1      5     25       0.000    
    116      1      5     26       0.000    
    117      1      5     27       0.000    
    118      1      5     28       0.000    
    119      1      5     29       0.000    
    120      1      5     30       0.000    
    121      1      6      1       0.000    
    122      1      6      2       0.000    
    123      1      6      3       0.000    
    124      1      6      4       0.000    
    125      1      6      5       0.000    
    126      1      6      6       0.000    
    127      1      6      7       0.000    
    128      1      6      8       0.000    
    129      1      6      9       0.000    
    130      1      6     10       0.000    
    131      1      6     11       0.000    
    132      1      6     12       0.000    
    133      1      6     13       0.000    
    134      1      6     14       0.000    
    135      1      6     15       0.000    
    136      1      6     16       0.000    
    137      1      6     17       0.000    
    138      1      6     18       0.000    
    139      1      6     19       0.000    
    140      1      6     20       0.000    
    141      1      6     21       0.000    
    142      1      6     22       0.000    
    143      1      6     23       0.000    
    144      1      6     24       0.000    
    145      1      6     25       0.000    
    146      1      6     26       0.000    
    147      1      6     27       0.000    
    148      1      6     28       0.000    
    149      1      6     29       0.000    
    150      1      6     30       0.000    
    151      1      7      1       0.000    
    152      1      7      2       0.000    
    153      1      7      3       0.000    
    154      1      7      4       0.000    
    155      1      7      5       0.000    
    156      1      7      6       0.000    
    157      1      7      7       0.000    
    158      1      7      8       0.000    
    159      1      7      9       0.000    
    160      1      7     10       0.000    
    161      1      7     11       0.000    
    162      1      7     12       0.000    
    163      1      7     13       0.000    
    164      1      7     14       0.000    
    165      1      7     15       0.000    
    166      1      7     16       0.000    
    167      1      7     17       0.000    
    168      1      7     18       0.000    
    169      1      7     19       0.000    
    170      1      7     20       0.000    
    171      1      7     21       0.000    
    172      1      7     22       0.000    
    173      1      7     23       0.000    
    174      1      7     24       0.000    
    175      1      7     25       0.000    
    176      1      7     26       0.000    
    177      1      7     27       0.000    
    178      1      7     28       0.000    
    179      1      7     29       0.000    
    180      1      7     30       0.000    
    181      1      8      1       0.000    
    182      1      8      2       0.000    
    183      1      8      3       0.000    
    184      1      8      4       0.000    
    185      1      8      5       0.000    
    186      1      8      6       0.000    
    187      1      8      7       0.000    
    188      1      8      8       0.000    
    189      1      8      9       0.000    
    190      1      8     10       0.000    
    191      1      8     11       0.000    
    192      1      8     12       0.000    
    193      1      8     13       0.000    
    194      1      8     14       0.000    
    195      1      8     15       0.000    
    196      1      8     16       0.000    
    197      1      8     17       0.000    
    198      1      8     18       0.000    
    199      1      8     19       0.000    
    200      1      8     20       0.000    
    201      1      8     21       0.000    
    202      1      8     22       0.000    
    203      1      8     23       0.000    
    204      1      8     24       0.000    
    205      1      8     25       0.000    
    206      1      8     26       0.000    
    207      1      8     27       0.000    
    208      1      8     28       0.000    
    209      1      8     29       0.000    
    210      1      8     30       0.000    
    211      1      9      1       0.000    
    212      1      9      2       0.000    
    213      1      9      3       0.000    
    214      1      9      4       0.000    
    215      1      9      5       0.000    
    216      1      9      6       0.000    
    217      1      9      7       0.000    
    218      1      9      8       0.000    
    219      1      9      9       0.000    
    220      1      9     10       0.000    
    221      1      9     11       0.000    
    222      1      9     12       0.000    
    223      1      9     13       0.000    
    224      1      9     14       0.000    
    225      1      9     15       0.000    
    226      1      9     16       0.000    
    227      1      9     17       0.000    
    228      1      9     18       0.000    
    229      1      9     19       0.000    
    230      1      9     20       0.000    
    231      1      9     21       0.000    
    232      1      9     22       0.000    
    233      1      9     23       0.000    
    234      1      9     24       0.000    
    235      1      9     25       0.000    
    236      1      9     26       0.000    
    237      1      9     27       0.000    
    238      1      9     28       0.000    
    239      1      9     29       0.000    
    240      1      9     30       0.000    
    241      1     10      1       0.000    
    242      1     10      2       0.000    
    243      1     10      3       0.000    
    244      1     10      4       0.000    
    245      1     10      5       0.000    
    246      1     10      6       0.000    
    247      1     10      7       0.000    
    248      1     10      8       0.000    
    249      1     10      9       0.000    
    250      1     10     10       0.000    
    251      1     10     11       0.000    
    252      1     10     12       0.000    
    253      1     10     13       0.000    
    254      1     10     14       0.000    
    255      1     10     15       0.000    
    256      1     10     16       0.000    
    257      1     10     17       0.000    
    258      1     10     18       0.000    
    259      1     10     19       0.000    
    260      1     10     20       0.000    
    261      1     10     21       0.000    
    262      1     10     22       0.000    
    263      1     10     23       0.000    
    264      1     10     24       0.000    
    265      1     10     25       0.000    
    266      1     10     26       0.000    
    267      1     10     27       0.000    
    268      1     10     28       0.000    
    269      1     10     29       0.000    
    270      1     10     30       0.000    
    271      1     11      1       0.000    
    272      1     11      2       0.000    
    273      1     11      3       0.000    
    274      1     11      4       0.000    
    275      1     11      5       0.000    
    276      1     11      6       0.000    
    277      1     11      7       0.000    
    278      1     11      8       0.000    
    279      1     11      9       0.000    
    280      1     11     10       0.000    
    281      1     11     11       0.000    
    282      1     11     12       0.000    
    283      1     11     13       0.000    
    284      1     11     14       0.000    
    285      1     11     15       0.000    
    286      1     11     16       0.000    
    287      1     11     17       0.000    
    288      1     11     18       0.000    
    289      1     11     19       0.000    
    290      1     11     20       0.000    
    291      1     11     21       0.000    
    292      1     11     22       0.000    
    293      1     11     23       0.000    
    294      1     11     24       0.000    
    295      1     11     25       0.000    
    296      1     11     26       0.000    
    297      1     11     27       0.000    
    298      1     11     28       0.000    
    299      1     11     29       0.000    
    300      1     11     30       0.000    
    301      1     12      1       0.000    
    302      1     12      2       0.000    
    303      1     12      3       0.000    
    304      1     12      4       0.000    
    305      1     12      5       0.000    
    306      1     12      6       0.000    
    307      1     12      7       0.000    
    308      1     12      8       0.000    
    309      1     12      9       0.000    
    310      1     12     10       0.000    
    311      1     12     11       0.000    
    312      1     12     12       0.000    
    313      1     12     13       0.000    
    314      1     12     14       0.000    
    315      1     12     15       0.000    
    316      1     12     16       0.000    
    317      1     12     17       0.000    
    318      1     12     18       0.000    
    319      1     12     19       0.000    
    320      1     12     20       0.000    
    321      1     12     21       0.000    
    322      1     12     22       0.000    
    323      1     12     23       0.000    
    324      1     12     24       0.000    
    325      1     12     25       0.000    
    326      1     12     26       0.000    
    327      1     12     27       0.000    
    328      1     12     28       0.000    
    329      1     12     29       0.000    
    330      1     12     30       0.000    
    331      1     13      1       0.000    
    332      1     13      2       0.000    
    333      1     13      3       0.000    
    334      1     13      4       0.000    
    335      1     13      5       0.000    
    336      1     13      6       0.000    
    337      1     13      7       0.000    
    338      1     13      8       0.000    
    339      1     13      9       0.000    
    340      1     13     10       0.000    
    341      1     13     11       0.000    
    342      1     13     12       0.000    
    343      1     13     13       0.000    
    344      1     13     14       0.000    
    345      1     13     15       0.000    
    346      1     13     16       0.000    
    347      1     13     17       0.000    
    348      1     13     18       0.000    
    349      1     13     19       0.000    
    350      1     13     20       0.000    
    351      1     13     21       0.000    
    352      1     13     22       0.000    
    353      1     13     23       0.000    
    354      1     13     24       0.000    
    355      1     13     25       0.000    
    356      1     13     26       0.000    
    357      1     13     27       0.000    
    358      1     13     28       0.000    
    359      1     13     29       0.000    
    360      1     13     30       0.000    
    361      1     14      1       0.000    
    362      1     14      2       0.000    
    363      1     14      3       0.000    
    364      1     14      4       0.000    
    365      1     14      5       0.000    
    366      1     14      6       0.000    
    367      1     14      7       0.000    
    368      1     14      8       0.000    
    369      1     14      9       0.000    
    370      1     14     10       0.000    
    371      1     14     11       0.000    
    372      1     14     12       0.000    
    373      1     14     13       0.000    
    374      1     14     14       0.000    
    375      1     14     15       0.000    
    376      1     14     16       0.000    
    377      1     14     17       0.000    
    378      1     14     18       0.000    
    379      1     14     19       0.000    
    380      1     14     20       0.000    
    381      1     14     21       0.000    
    382      1     14     22       0.000    
    383      1     14     23       0.000    
    384      1     14     24       0.000    
    385      1     14     25       0.000    
    386      1     14     26       0.000    
    387      1     14     27       0.000    
    388      1     14     28       0.000    
    389      1     14     29       0.000    
    390      1     14     30       0.000    
    391      1     15      1       0.000    
    392      1     15      2       0.000    
    393      1     15      3       0.000    
    394      1     15      4       0.000    
    395      1     15      5       0.000    
    396      1     15      6       0.000    
    397      1     15      7       0.000    
    398      1     15      8       0.000    
    399      1     15      9       0.000    
    400      1     15     10       0.000    
    401      1     15     11       0.000    
    402      1     15     12       0.000    
    403      1     15     13       0.000    
    404      1     15     14       0.000    
    405      1     15     15       0.000    
    406      1     15     16       0.000    
    407      1     15     17       0.000    
    408      1     15     18       0.000    
    409      1     15     19       0.000    
    410      1     15     20       0.000    
    411      1     15     21       0.000    
    412      1     15     22       0.000    
    413      1     15     23       0.000    
    414      1     15     24       0.000    
    415      1     15     25       0.000    
    416      1     15     26       0.000    
    417      1     15     27       0.000    
    418      1     15     28       0.000    
    419      1     15     29       0.000    
    420      1     15     30       0.000    
    421      1     16      1       0.000    
    422      1     16      2       0.000    
    423      1     16      3       0.000    
    424      1     16      4       0.000    
    425      1     16      5       0.000    
    426      1     16      6       0.000    
    427      1     16      7       0.000    
    428      1     16      8       0.000    
    429      1     16      9       0.000    
    430      1     16     10       0.000    
    431      1     16     11       0.000    
    432      1     16     12       0.000    
    433      1     16     13       0.000    
    434      1     16     14       0.000    
    435      1     16     15       0.000    
    436      1     16     16       0.000    
    437      1     16     17       0.000    
    438      1     16     18       0.000    
    439      1     16     19       0.000    
    440      1     16     20       0.000    
    441      1     16     21       0.000    
    442      1     16     22       0.000    
    443      1     16     23       0.000    
    444      1     16     24       0.000    
    445      1     16     25       0.000    
    446      1     16     26       0.000    
    447      1     16     27       0.000    
    448      1     16     28       0.000    
    449      1     16     29       0.000    
    450      1     16     30       0.000    
    451      1     17      1       0.000    
    452      1     17      2       0.000    
    453      1     17      3       0.000    
    454      1     17      4       0.000    
    455      1     17      5       0.000    
    456      1     17      6       0.000    
    457      1     17      7       0.000    
    458      1     17      8       0.000    
    459      1     17      9       0.000    
    460      1     17     10       0.000    
    461      1     17     11       0.000    
    462      1     17     12       0.000    
    463      1     17     13       0.000    
    464      1     17     14       0.000    
    465      1     17     15       0.000    
    466      1     17     16       0.000    
    467      1     17     17       0.000    
    468      1     17     18       0.000    
    469      1     17     19       0.000    
    470      1     17     20       0.000    
    471      1     17     21       0.000    
    472      1     17     22       0.000    
    473      1     17     23       0.000    
    474      1     17     24       0.000    
    475      1     17     25       0.000    
    476      1     17     26       0.000    
    477      1     17     27       0.000    
    478      1     17     28       0.000    
    479      1     17     29       0.000    
    480      1     17     30       0.000    
    481      1     18      1       0.000    
    482      1     18      2       0.000    
    483      1     18      3       0.000    
    484      1     18      4       0.000    
    485      1     18      5       0.000    
    486      1     18      6       0.000    
    487      1     18      7       0.000    
    488      1     18      8       0.000    
    489      1     18      9       0.000    
    490      1     18     10       0.000    
    491      1     18     11       0.000    
    492      1     18     12       0.000    
    493      1     18     13       0.000    
    494      1     18     14       0.000    
    495      1     18     15       0.000    
    496      1     18     16       0.000    
    497      1     18     17       0.000    
    498      1     18     18       0.000    
    499      1     18     19       0.000    
    500      1     18     20       0.000    
    501      1     18     21       0.000    
    502      1     18     22       0.000    
    503      1     18     23       0.000    
    504      1     18     24       0.000    
    505      1     18     25       0.000    
    506      1     18     26       0.000    
    507      1     18     27       0.000    
    508      1     18     28       0.000    
    509      1     18     29       0.000    
    510      1     18     30       0.000    
    511      1     19      1       0.000    
    512      1     19      2       0.000    
    513      1     19      3       0.000    
    514      1     19      4       0.000    
    515      1     19      5       0.000    
    516      1     19      6       0.000    
    517      1     19      7       0.000    
    518      1     19      8       0.000    
    519      1     19      9       0.000    
    520      1     19     10       0.000    
    521      1     19     11       0.000    
    522      1     19     12       0.000    
    523      1     19     13       0.000    
    524      1     19     14       0.000    
    525      1     19     15       0.000    
    526      1     19     16       0.000    
    527      1     19     17       0.000    
    528      1     19     18       0.000    
    529      1     19     19       0.000    
    530      1     19     20       0.000    
    531      1     19     21       0.000    
    532      1     19     22       0.000    
    533      1     19     23       0.000    
    534      1     19     24       0.000    
    535      1     19     25       0.000    
    536      1     19     26       0.000    
    537      1     19     27       0.000    
    538      1     19     28       0.000    
    539      1     19     29       0.000    
    540      1     19     30       0.000    
    541      1     20      1       0.000    
    542      1     20      2       0.000    
    543      1     20      3       0.000    
    544      1     20      4       0.000    
    545      1     20      5       0.000    
    546      1     20      6       0.000    
    547      1     20      7       0.000    
    548      1     20      8       0.000    
    549      1     20      9       0.000    
    550      1     20     10       0.000    
    551      1     20     11       0.000    
    552      1     20     12       0.000    
    553      1     20     13       0.000    
    554      1     20     14       0.000    
    555      1     20     15       0.000    
    556      1     20     16       0.000    
    557      1     20     17       0.000    
    558      1     20     18       0.000    
    559      1     20     19       0.000    
    560      1     20     20       0.000    
    561      1     20     21       0.000    
    562      1     20     22       0.000    
    563      1     20     23       0.000    
    564      1     20     24       0.000    
    565      1     20     25       0.000    
    566      1     20     26       0.000    
    567      1     20     27       0.000    
    568      1     20     28       0.000    
    569      1     20     29       0.000    
    570      1     20     30       0.000    
    571      1     21      1       0.000    
    572      1     21      2       0.000    
    573      1     21      3       0.000    
    574      1     21      4       0.000    
    575      1     21      5       0.000    
    576      1     21      6       0.000    
    577      1     21      7       0.000    
    578      1     21      8       0.000    
    579      1     21      9       0.000    
    580      1     21     10       0.000    
    581      1     21     11       0.000    
    582      1     21     12       0.000    
    583      1     21     13       0.000    
    584      1     21     14       0.000    
    585      1     21     15       0.000    
    586      1     21     16       0.000    
    587      1     21     17       0.000    
    588      1     21     18       0.000    
    589      1     21     19       0.000    
    590      1     21     20       0.000    
    591      1     21     21       0.000    
    592      1     21     22       0.000    
    593      1     21     23       0.000    
    594      1     21     24       0.000    
    595      1     21     25       0.000    
    596      1     21     26       0.000    
    597      1     21     27       0.000    
    598      1     21     28       0.000    
    599      1     21     29       0.000    
    600      1     21     30       0.000    
    601      1     22      1       0.000    
    602      1     22      2       0.000    
    603      1     22      3       0.000    
    604      1     22      4       0.000    
    605      1     22      5       0.000    
    606      1     22      6       0.000    
    607      1     22      7       0.000    
    608      1     22      8       0.000    
    609      1     22      9       0.000    
    610      1     22     10       0.000    
    611      1     22     11       0.000    
    612      1     22     12       0.000    
    613      1     22     13       0.000    
    614      1     22     14       0.000    
    615      1     22     15       0.000    
    616      1     22     16       0.000    
    617      1     22     17       0.000    
    618      1     22     18       0.000    
    619      1     22     19       0.000    
    620      1     22     20       0.000    
    621      1     22     21       0.000    
    622      1     22     22       0.000    
    623      1     22     23       0.000    
    624      1     22     24       0.000    
    625      1     22     25       0.000    
    626      1     22     26       0.000    
    627      1     22     27       0.000    
    628      1     22     28       0.000    
    629      1     22     29       0.000    
    630      1     22     30       0.000    
    631      1     23      1       0.000    
    632      1     23      2       0.000    
    633      1     23      3       0.000    
    634      1     23      4       0.000    
    635      1     23      5       0.000    
    636      1     23      6       0.000    
    637      1     23      7       0.000    
    638      1     23      8       0.000    
    639      1     23      9       0.000    
    640      1     23     10       0.000    
    641      1     23     11       0.000    
    642      1     23     12       0.000    
    643      1     23     13       0.000    
    644      1     23     14       0.000    
    645      1     23     15       0.000    
    646      1     23     16       0.000    
    647      1     23     17       0.000    
    648      1     23     18       0.000    
    649      1     23     19       0.000    
    650      1     23     20       0.000    
    651      1     23     21       0.000    
    652      1     23     22       0.000    
    653      1     23     23       0.000    
    654      1     23     24       0.000    
    655      1     23     25       0.000    
    656      1     23     26       0.000    
    657      1     23     27       0.000    
    658      1     23     28       0.000    
    659      1     23     29       0.000    
    660      1     23     30       0.000    
    661      1     24      1       0.000    
    662      1     24      2       0.000    
    663      1     24      3       0.000    
    664      1     24      4       0.000    
    665      1     24      5       0.000    
    666      1     24      6       0.000    
    667      1     24      7       0.000    
    668      1     24      8       0.000    
    669      1     24      9       0.000    
    670      1     24     10       0.000    
    671      1     24     11       0.000    
    672      1     24     12       0.000    
    673      1     24     13       0.000    
    674      1     24     14       0.000    
    675      1     24     15       0.000    
    676      1     24     16       0.000    
    677      1     24     17       0.000    
    678      1     24     18       0.000    
    679      1     24     19       0.000    
    680      1     24     20       0.000    
    681      1     24     21       0.000    
    682      1     24     22       0.000    
    683      1     24     23       0.000    
    684      1     24     24       0.000    
    685      1     24     25       0.000    
    686      1     24     26       0.000    
    687      1     24     27       0.000    
    688      1     24     28       0.000    
    689      1     24     29       0.000    
    690      1     24     30       0.000    

    690 WELLS

                 RECHARGE =  2.000000E-03

 REUSING STREAM SEGMENT DATA FROM LAST STRESS PERIOD

 SOLVING FOR HEAD 


     5 CALLS TO PCG ROUTINE FOR TIME STEP   1 IN STRESS PERIOD   10
    18 TOTAL ITERATIONS

 OUTPUT CONTROL FOR STRESS PERIOD   10   TIME STEP    1
    SAVE HEAD FOR ALL LAYERS
    SAVE BUDGET



 STREAM LISTING     PERIOD     10   STEP        1

 LAYER ROW COL. STREAM  RCH.  FLOW INTO     FLOW TO   FLOW OUT OF   OVRLND.     DIRECT     STREAM       STREAM     STREAM     STREAM   STREAMBED  STREAMBED
                SEG.NO.  NO.  STRM. RCH.    AQUIFER    STRM. RCH.    RUNOFF     PRECIP       ET          HEAD       DEPTH      WIDTH   CONDCTNC.   GRADIENT

   1   13    1     1     1    1.0000E+05 -2.8365E+04   1.2836E+05  0.000E+00  0.000E+00  0.000E+00  4.84180E+01  1.566E-01  2.000E+01  2.000E+04 -1.418E+00
   1   13    2     1     2    1.2836E+05 -3.8215E+04   1.6658E+05  0.000E+00  0.000E+00  0.000E+00  4.79667E+01  1.826E-01  2.000E+01  2.000E+04 -1.911E+00
   1   14    3     1     3    1.6658E+05 -3.3678E+04   2.0026E+05  0.000E+00  0.000E+00  0.000E+00  4.75150E+01  2.082E-01  2.000E+01  2.000E+04 -1.684E+00
   1   15    4     1     4    2.0026E+05 -3.2892E+04   2.3315E+05  0.000E+00  0.000E+00  0.000E+00  4.70596E+01  2.301E-01  2.000E+01  2.000E+04 -1.645E+00
   1   16    5     1     5    2.3315E+05 -3.4355E+04   2.6750E+05  0.000E+00  0.000E+00  0.000E+00  4.66031E+01  2.509E-01  2.000E+01  2.000E+04 -1.718E+00
   1   16    6     1     6    2.6750E+05 -3.0025E+04   2.9753E+05  0.000E+00  0.000E+00  0.000E+00  4.61447E+01  2.697E-01  2.000E+01  2.000E+04 -1.501E+00
   1   16    7     1     7    2.9753E+05 -2.9855E+04   3.2739E+05  0.000E+00  0.000E+00  0.000E+00  4.56843E+01  2.865E-01  2.000E+01  2.000E+04 -1.493E+00
   1   16    8     1     8    3.2739E+05 -3.0054E+04   3.5744E+05  0.000E+00  0.000E+00  0.000E+00  4.52232E+01  3.027E-01  2.000E+01  2.000E+04 -1.503E+00
   1   16    9     1     9    3.5744E+05 -3.0152E+04   3.8759E+05  0.000E+00  0.000E+00  0.000E+00  4.47616E+01  3.184E-01  2.000E+01  2.000E+04 -1.508E+00
   1   16   10     1    10    3.8759E+05 -3.0200E+04   4.1779E+05  0.000E+00  0.000E+00  0.000E+00  4.42996E+01  3.337E-01  2.000E+01  2.000E+04 -1.510E+00
   1   16   11     1    11    4.1779E+05 -3.0840E+04   4.4863E+05  0.000E+00  0.000E+00  0.000E+00  4.38372E+01  3.486E-01  2.000E+01  2.000E+04 -1.542E+00
   1   16   12     1    12    4.4863E+05 -3.6487E+04   4.8512E+05  0.000E+00  0.000E+00  0.000E+00  4.33760E+01  3.646E-01  2.000E+01  2.000E+04 -1.824E+00
   1   15   13     1    13    4.8512E+05 -3.5299E+04   5.2042E+05  0.000E+00  0.000E+00  0.000E+00  4.29153E+01  3.812E-01  2.000E+01  2.000E+04 -1.765E+00
   1   14   14     1    14    5.2042E+05 -3.5913E+04   5.5633E+05  0.000E+00  0.000E+00  0.000E+00  4.24540E+01  3.972E-01  2.000E+01  2.000E+04 -1.796E+00
   1   13   15     1    15    5.5633E+05 -3.8129E+04   5.9446E+05  0.000E+00  0.000E+00  0.000E+00  4.19929E+01  4.133E-01  2.000E+01  2.000E+04 -1.906E+00
   1   12   16     1    16    5.9446E+05 -4.4141E+04   6.3860E+05  0.000E+00  0.000E+00  0.000E+00  4.15331E+01  4.308E-01  2.000E+01  2.000E+04 -2.207E+00
   1   12   17     1    17    6.3860E+05 -3.4558E+04   6.7316E+05  0.000E+00  0.000E+00  0.000E+00  4.10721E+01  4.471E-01  2.000E+01  2.000E+04 -1.728E+00
   1   12   18     1    18    6.7316E+05 -3.2919E+04   7.0608E+05  0.000E+00  0.000E+00  0.000E+00  4.06085E+01  4.608E-01  2.000E+01  2.000E+04 -1.646E+00
   1   12   19     1    19    7.0608E+05 -3.7046E+04   7.4312E+05  0.000E+00  0.000E+00  0.000E+00  4.01451E+01  4.747E-01  2.000E+01  2.000E+04 -1.852E+00
   1   13   20     1    20    7.4312E+05 -2.7330E+04   7.7045E+05  0.000E+00  0.000E+00  0.000E+00  3.96804E+01  4.872E-01  2.000E+01  2.000E+04 -1.367E+00
   1   14   21     1    21    7.7045E+05 -2.0187E+04   7.9064E+05  0.000E+00  0.000E+00  0.000E+00  3.92122E+01  4.963E-01  2.000E+01  2.000E+04 -1.009E+00
   1   14   22     1    22    7.9064E+05 -1.9054E+03   7.9255E+05  0.000E+00  0.000E+00  0.000E+00  3.87392E+01  5.005E-01  2.000E+01  2.000E+04 -9.527E-02
   1    9   30     2     1    5.0000E+04 -2.6941E+04   7.6941E+04  0.000E+00  0.000E+00  0.000E+00  4.02587E+01  1.337E-01  2.000E+01  2.000E+04 -1.347E+00
   1    9   29     2     2    7.6941E+04 -2.9409E+04   1.0635E+05  0.000E+00  0.000E+00  0.000E+00  4.00417E+01  1.667E-01  2.000E+01  2.000E+04 -1.470E+00
   1    9   28     2     3    1.0635E+05 -3.3713E+04   1.4006E+05  0.000E+00  0.000E+00  0.000E+00  3.98240E+01  1.990E-01  2.000E+01  2.000E+04 -1.686E+00
   1    9   27     2     4    1.4006E+05 -4.7936E+04   1.8800E+05  0.000E+00  0.000E+00  0.000E+00  3.96113E+01  2.363E-01  2.000E+01  2.000E+04 -2.397E+00
   1   10   26     2     5    1.8800E+05 -3.3937E+04   2.2194E+05  0.000E+00  0.000E+00  0.000E+00  3.93951E+01  2.701E-01  2.000E+01  2.000E+04 -1.697E+00
   1   11   25     2     6    2.2194E+05 -2.5582E+04   2.4752E+05  0.000E+00  0.000E+00  0.000E+00  3.91680E+01  2.930E-01  2.000E+01  2.000E+04 -1.279E+00
   1   12   24     2     7    2.4752E+05 -1.8974E+04   2.6649E+05  0.000E+00  0.000E+00  0.000E+00  3.89344E+01  3.094E-01  2.000E+01  2.000E+04 -9.487E-01
   1   13   23     2     8    2.6649E+05 -1.3554E+04   2.8005E+05  0.000E+00  0.000E+00  0.000E+00  3.86960E+01  3.210E-01  2.000E+01  2.000E+04 -6.777E-01
   1   14   22     2     9    2.8005E+05 -7.6202E+03   2.8767E+05  0.000E+00  0.000E+00  0.000E+00  3.84534E+01  3.284E-01  2.000E+01  2.000E+04 -3.810E-01
   1   14   22     3     1    1.0802E+06 -1.5524E+04   1.0957E+06  0.000E+00  0.000E+00  0.000E+00  3.80582E+01  5.027E-01  2.000E+01  2.000E+04 -7.762E-01
   1   15   23     3     2    1.0957E+06 -2.4131E+04   1.1199E+06  0.000E+00  0.000E+00  0.000E+00  3.71748E+01  5.081E-01  2.000E+01  2.000E+04 -1.207E+00
   1   15   24     3     3    1.1199E+06 -2.0080E+04   1.1399E+06  0.000E+00  0.000E+00  0.000E+00  3.62920E+01  5.142E-01  2.000E+01  2.000E+04 -1.004E+00
   1   15   25     3     4    1.1399E+06 -1.9668E+04   1.1596E+06  0.000E+00  0.000E+00  0.000E+00  3.54085E+01  5.196E-01  2.000E+01  2.000E+04 -9.834E-01
   1   15   26     3     5    1.1596E+06 -2.2472E+04   1.1821E+06  0.000E+00  0.000E+00  0.000E+00  3.45253E+01  5.253E-01  2.000E+01  2.000E+04 -1.124E+00
   1   16   27     3     6    1.1821E+06 -2.9729E+04   1.2118E+06  0.000E+00  0.000E+00  0.000E+00  3.36434E+01  5.323E-01  2.000E+01  2.000E+04 -1.486E+00
   1   17   28     3     7    1.2118E+06 -3.6801E+04   1.2486E+06  0.000E+00  0.000E+00  0.000E+00  3.27633E+01  5.411E-01  2.000E+01  2.000E+04 -1.840E+00
   1   18   29     3     8    1.2486E+06 -4.7765E+04   1.2964E+06  0.000E+00  0.000E+00  0.000E+00  3.18855E+01  5.522E-01  2.000E+01  2.000E+04 -2.388E+00
   1   18   30     3     9    1.2964E+06 -4.4111E+04   1.3405E+06  0.000E+00  0.000E+00  0.000E+00  3.10085E+01  5.641E-01  2.000E+01  2.000E+04 -2.206E+00




 HEAD WILL BE SAVED ON UNIT   51 AT END OF TIME STEP    1, STRESS PERIOD   10
1
  VOLUMETRIC BUDGET FOR ENTIRE MODEL AT END OF TIME STEP    1, STRESS PERIOD  10
  ------------------------------------------------------------------------------

     CUMULATIVE VOLUMES      L**3       RATES FOR THIS TIME STEP      L**3/T
     ------------------                 ------------------------

           IN:                                      IN:
           ---                                      ---
             STORAGE =    20129076.0000               STORAGE =           0.0000
       CONSTANT HEAD =  1043385472.0000         CONSTANT HEAD =     1137234.2500
               WELLS =           0.0000                 WELLS =           0.0000
            RECHARGE =    23901600.0000              RECHARGE =       55200.0000
      STREAM LEAKAGE =           0.0000        STREAM LEAKAGE =           0.0000

            TOTAL IN =  1087416192.0000              TOTAL IN =     1192434.2500

          OUT:                                     OUT:
          ----                                     ----
             STORAGE =      562398.9375               STORAGE =        1937.8899
       CONSTANT HEAD =           0.0000         CONSTANT HEAD =           0.0000
               WELLS =           0.0000                 WELLS =           0.0000
            RECHARGE =           0.0000              RECHARGE =           0.0000
      STREAM LEAKAGE =  1086853632.0000        STREAM LEAKAGE =     1190495.1250

           TOTAL OUT =  1087416064.0000             TOTAL OUT =     1192433.0000

            IN - OUT =         128.0000              IN - OUT =           1.2500

 PERCENT DISCREPANCY =           0.00     PERCENT DISCREPANCY =           0.00






         TIME SUMMARY AT END OF TIME STEP    1 IN STRESS PERIOD   10
                    SECONDS     MINUTES      HOURS       DAYS        YEARS
                    -----------------------------------------------------------
   TIME STEP LENGTH 7.86240E+06 1.31040E+05  2184.0      91.000     0.24914    
 STRESS PERIOD TIME 7.86240E+06 1.31040E+05  2184.0      91.000     0.24914    
         TOTAL TIME 7.88832E+07 1.31472E+06  21912.      913.00      2.4997    
1
1
                            STRESS PERIOD NO.   11, LENGTH =   91.00000    
                            -----------------------------------------------

                              NUMBER OF TIME STEPS =     1

                               MULTIPLIER FOR DELT =     1.500

                            INITIAL TIME STEP SIZE =   91.00000    

 WELL NO.  LAYER   ROW   COL   STRESS RATE         
 --------------------------------------------------
      1      1      2      1       0.000    
      2      1      2      2       0.000    
      3      1      2      3       0.000    
      4      1      2      4       0.000    
      5      1      2      5       0.000    
      6      1      2      6       0.000    
      7      1      2      7       0.000    
      8      1      2      8       0.000    
      9      1      2      9       0.000    
     10      1      2     10       0.000    
     11      1      2     11       0.000    
     12      1      2     12       0.000    
     13      1      2     13       0.000    
     14      1      2     14       0.000    
     15      1      2     15       0.000    
     16      1      2     16       0.000    
     17      1      2     17       0.000    
     18      1      2     18       0.000    
     19      1      2     19       0.000    
     20      1      2     20       0.000    
     21      1      2     21       0.000    
     22      1      2     22       0.000    
     23      1      2     23       0.000    
     24      1      2     24       0.000    
     25      1      2     25       0.000    
     26      1      2     26       0.000    
     27      1      2     27       0.000    
     28      1      2     28       0.000    
     29      1      2     29       0.000    
     30      1      2     30       0.000    
     31      1      3      1       0.000    
     32      1      3      2       0.000    
     33      1      3      3       0.000    
     34      1      3      4       0.000    
     35      1      3      5       0.000    
     36      1      3      6       0.000    
     37      1      3      7       0.000    
     38      1      3      8       0.000    
     39      1      3      9       0.000    
     40      1      3     10       0.000    
     41      1      3     11       0.000    
     42      1      3     12       0.000    
     43      1      3     13       0.000    
     44      1      3     14       0.000    
     45      1      3     15       0.000    
     46      1      3     16       0.000    
     47      1      3     17       0.000    
     48      1      3     18       0.000    
     49      1      3     19       0.000    
     50      1      3     20       0.000    
     51      1      3     21       0.000    
     52      1      3     22       0.000    
     53      1      3     23       0.000    
     54      1      3     24       0.000    
     55      1      3     25       0.000    
     56      1      3     26       0.000    
     57      1      3     27       0.000    
     58      1      3     28       0.000    
     59      1      3     29       0.000    
     60      1      3     30       0.000    
     61      1      4      1       0.000    
     62      1      4      2       0.000    
     63      1      4      3       0.000    
     64      1      4      4       0.000    
     65      1      4      5       0.000    
     66      1      4      6       0.000    
     67      1      4      7       0.000    
     68      1      4      8       0.000    
     69      1      4      9       0.000    
     70      1      4     10       0.000    
     71      1      4     11       0.000    
     72      1      4     12       0.000    
     73      1      4     13       0.000    
     74      1      4     14       0.000    
     75      1      4     15       0.000    
     76      1      4     16       0.000    
     77      1      4     17       0.000    
     78      1      4     18       0.000    
     79      1      4     19       0.000    
     80      1      4     20       0.000    
     81      1      4     21       0.000    
     82      1      4     22       0.000    
     83      1      4     23       0.000    
     84      1      4     24       0.000    
     85      1      4     25       0.000    
     86      1      4     26       0.000    
     87      1      4     27       0.000    
     88      1      4     28       0.000    
     89      1      4     29       0.000    
     90      1      4     30       0.000    
     91      1      5      1       0.000    
     92      1      5      2       0.000    
     93      1      5      3       0.000    
     94      1      5      4       0.000    
     95      1      5      5       0.000    
     96      1      5      6       0.000    
     97      1      5      7       0.000    
     98      1      5      8       0.000    
     99      1      5      9       0.000    
    100      1      5     10       0.000    
    101      1      5     11       0.000    
    102      1      5     12       0.000    
    103      1      5     13       0.000    
    104      1      5     14       0.000    
    105      1      5     15       0.000    
    106      1      5     16       0.000    
    107      1      5     17       0.000    
    108      1      5     18       0.000    
    109      1      5     19       0.000    
    110      1      5     20       0.000    
    111      1      5     21       0.000    
    112      1      5     22       0.000    
    113      1      5     23       0.000    
    114      1      5     24       0.000    
    115      1      5     25       0.000    
    116      1      5     26       0.000    
    117      1      5     27       0.000    
    118      1      5     28       0.000    
    119      1      5     29       0.000    
    120      1      5     30       0.000    
    121      1      6      1       0.000    
    122      1      6      2       0.000    
    123      1      6      3       0.000    
    124      1      6      4       0.000    
    125      1      6      5       0.000    
    126      1      6      6       0.000    
    127      1      6      7       0.000    
    128      1      6      8       0.000    
    129      1      6      9       0.000    
    130      1      6     10       0.000    
    131      1      6     11       0.000    
    132      1      6     12       0.000    
    133      1      6     13       0.000    
    134      1      6     14       0.000    
    135      1      6     15       0.000    
    136      1      6     16       0.000    
    137      1      6     17       0.000    
    138      1      6     18       0.000    
    139      1      6     19       0.000    
    140      1      6     20       0.000    
    141      1      6     21       0.000    
    142      1      6     22       0.000    
    143      1      6     23       0.000    
    144      1      6     24       0.000    
    145      1      6     25       0.000    
    146      1      6     26       0.000    
    147      1      6     27       0.000    
    148      1      6     28       0.000    
    149      1      6     29       0.000    
    150      1      6     30       0.000    
    151      1      7      1       0.000    
    152      1      7      2       0.000    
    153      1      7      3       0.000    
    154      1      7      4       0.000    
    155      1      7      5       0.000    
    156      1      7      6       0.000    
    157      1      7      7       0.000    
    158      1      7      8       0.000    
    159      1      7      9       0.000    
    160      1      7     10       0.000    
    161      1      7     11       0.000    
    162      1      7     12       0.000    
    163      1      7     13       0.000    
    164      1      7     14       0.000    
    165      1      7     15       0.000    
    166      1      7     16       0.000    
    167      1      7     17       0.000    
    168      1      7     18       0.000    
    169      1      7     19       0.000    
    170      1      7     20       0.000    
    171      1      7     21       0.000    
    172      1      7     22       0.000    
    173      1      7     23       0.000    
    174      1      7     24       0.000    
    175      1      7     25       0.000    
    176      1      7     26       0.000    
    177      1      7     27       0.000    
    178      1      7     28       0.000    
    179      1      7     29       0.000    
    180      1      7     30       0.000    
    181      1      8      1       0.000    
    182      1      8      2       0.000    
    183      1      8      3       0.000    
    184      1      8      4       0.000    
    185      1      8      5       0.000    
    186      1      8      6       0.000    
    187      1      8      7       0.000    
    188      1      8      8       0.000    
    189      1      8      9       0.000    
    190      1      8     10       0.000    
    191      1      8     11       0.000    
    192      1      8     12       0.000    
    193      1      8     13       0.000    
    194      1      8     14       0.000    
    195      1      8     15       0.000    
    196      1      8     16       0.000    
    197      1      8     17       0.000    
    198      1      8     18       0.000    
    199      1      8     19       0.000    
    200      1      8     20       0.000    
    201      1      8     21       0.000    
    202      1      8     22       0.000    
    203      1      8     23       0.000    
    204      1      8     24       0.000    
    205      1      8     25       0.000    
    206      1      8     26       0.000    
    207      1      8     27       0.000    
    208      1      8     28       0.000    
    209      1      8     29       0.000    
    210      1      8     30       0.000    
    211      1      9      1       0.000    
    212      1      9      2       0.000    
    213      1      9      3       0.000    
    214      1      9      4       0.000    
    215      1      9      5       0.000    
    216      1      9      6       0.000    
    217      1      9      7       0.000    
    218      1      9      8       0.000    
    219      1      9      9       0.000    
    220      1      9     10       0.000    
    221      1      9     11       0.000    
    222      1      9     12       0.000    
    223      1      9     13       0.000    
    224      1      9     14       0.000    
    225      1      9     15       0.000    
    226      1      9     16       0.000    
    227      1      9     17       0.000    
    228      1      9     18       0.000    
    229      1      9     19       0.000    
    230      1      9     20       0.000    
    231      1      9     21       0.000    
    232      1      9     22       0.000    
    233      1      9     23       0.000    
    234      1      9     24       0.000    
    235      1      9     25       0.000    
    236      1      9     26       0.000    
    237      1      9     27       0.000    
    238      1      9     28       0.000    
    239      1      9     29       0.000    
    240      1      9     30       0.000    
    241      1     10      1       0.000    
    242      1     10      2       0.000    
    243      1     10      3       0.000    
    244      1     10      4       0.000    
    245      1     10      5       0.000    
    246      1     10      6       0.000    
    247      1     10      7       0.000    
    248      1     10      8       0.000    
    249      1     10      9       0.000    
    250      1     10     10       0.000    
    251      1     10     11       0.000    
    252      1     10     12       0.000    
    253      1     10     13       0.000    
    254      1     10     14       0.000    
    255      1     10     15       0.000    
    256      1     10     16       0.000    
    257      1     10     17       0.000    
    258      1     10     18       0.000    
    259      1     10     19       0.000    
    260      1     10     20       0.000    
    261      1     10     21       0.000    
    262      1     10     22       0.000    
    263      1     10     23       0.000    
    264      1     10     24       0.000    
    265      1     10     25       0.000    
    266      1     10     26       0.000    
    267      1     10     27       0.000    
    268      1     10     28       0.000    
    269      1     10     29       0.000    
    270      1     10     30       0.000    
    271      1     11      1       0.000    
    272      1     11      2       0.000    
    273      1     11      3       0.000    
    274      1     11      4       0.000    
    275      1     11      5       0.000    
    276      1     11      6       0.000    
    277      1     11      7       0.000    
    278      1     11      8       0.000    
    279      1     11      9       0.000    
    280      1     11     10       0.000    
    281      1     11     11       0.000    
    282      1     11     12       0.000    
    283      1     11     13       0.000    
    284      1     11     14       0.000    
    285      1     11     15       0.000    
    286      1     11     16       0.000    
    287      1     11     17       0.000    
    288      1     11     18       0.000    
    289      1     11     19       0.000    
    290      1     11     20       0.000    
    291      1     11     21       0.000    
    292      1     11     22       0.000    
    293      1     11     23       0.000    
    294      1     11     24       0.000    
    295      1     11     25       0.000    
    296      1     11     26       0.000    
    297      1     11     27       0.000    
    298      1     11     28       0.000    
    299      1     11     29       0.000    
    300      1     11     30       0.000    
    301      1     12      1       0.000    
    302      1     12      2       0.000    
    303      1     12      3       0.000    
    304      1     12      4       0.000    
    305      1     12      5       0.000    
    306      1     12      6       0.000    
    307      1     12      7       0.000    
    308      1     12      8       0.000    
    309      1     12      9       0.000    
    310      1     12     10       0.000    
    311      1     12     11       0.000    
    312      1     12     12       0.000    
    313      1     12     13       0.000    
    314      1     12     14       0.000    
    315      1     12     15       0.000    
    316      1     12     16       0.000    
    317      1     12     17       0.000    
    318      1     12     18       0.000    
    319      1     12     19       0.000    
    320      1     12     20       0.000    
    321      1     12     21       0.000    
    322      1     12     22       0.000    
    323      1     12     23       0.000    
    324      1     12     24       0.000    
    325      1     12     25       0.000    
    326      1     12     26       0.000    
    327      1     12     27       0.000    
    328      1     12     28       0.000    
    329      1     12     29       0.000    
    330      1     12     30       0.000    
    331      1     13      1       0.000    
    332      1     13      2       0.000    
    333      1     13      3       0.000    
    334      1     13      4       0.000    
    335      1     13      5       0.000    
    336      1     13      6       0.000    
    337      1     13      7       0.000    
    338      1     13      8       0.000    
    339      1     13      9       0.000    
    340      1     13     10       0.000    
    341      1     13     11       0.000    
    342      1     13     12       0.000    
    343      1     13     13       0.000    
    344      1     13     14       0.000    
    345      1     13     15       0.000    
    346      1     13     16       0.000    
    347      1     13     17       0.000    
    348      1     13     18       0.000    
    349      1     13     19       0.000    
    350      1     13     20       0.000    
    351      1     13     21       0.000    
    352      1     13     22       0.000    
    353      1     13     23       0.000    
    354      1     13     24       0.000    
    355      1     13     25       0.000    
    356      1     13     26       0.000    
    357      1     13     27       0.000    
    358      1     13     28       0.000    
    359      1     13     29       0.000    
    360      1     13     30       0.000    
    361      1     14      1       0.000    
    362      1     14      2       0.000    
    363      1     14      3       0.000    
    364      1     14      4       0.000    
    365      1     14      5       0.000    
    366      1     14      6       0.000    
    367      1     14      7       0.000    
    368      1     14      8       0.000    
    369      1     14      9       0.000    
    370      1     14     10       0.000    
    371      1     14     11       0.000    
    372      1     14     12       0.000    
    373      1     14     13       0.000    
    374      1     14     14       0.000    
    375      1     14     15       0.000    
    376      1     14     16       0.000    
    377      1     14     17       0.000    
    378      1     14     18       0.000    
    379      1     14     19       0.000    
    380      1     14     20       0.000    
    381      1     14     21       0.000    
    382      1     14     22       0.000    
    383      1     14     23       0.000    
    384      1     14     24       0.000    
    385      1     14     25       0.000    
    386      1     14     26       0.000    
    387      1     14     27       0.000    
    388      1     14     28       0.000    
    389      1     14     29       0.000    
    390      1     14     30       0.000    
    391      1     15      1       0.000    
    392      1     15      2       0.000    
    393      1     15      3       0.000    
    394      1     15      4       0.000    
    395      1     15      5       0.000    
    396      1     15      6       0.000    
    397      1     15      7       0.000    
    398      1     15      8       0.000    
    399      1     15      9       0.000    
    400      1     15     10       0.000    
    401      1     15     11       0.000    
    402      1     15     12       0.000    
    403      1     15     13       0.000    
    404      1     15     14       0.000    
    405      1     15     15       0.000    
    406      1     15     16       0.000    
    407      1     15     17       0.000    
    408      1     15     18       0.000    
    409      1     15     19       0.000    
    410      1     15     20       0.000    
    411      1     15     21       0.000    
    412      1     15     22       0.000    
    413      1     15     23       0.000    
    414      1     15     24       0.000    
    415      1     15     25       0.000    
    416      1     15     26       0.000    
    417      1     15     27       0.000    
    418      1     15     28       0.000    
    419      1     15     29       0.000    
    420      1     15     30       0.000    
    421      1     16      1       0.000    
    422      1     16      2       0.000    
    423      1     16      3       0.000    
    424      1     16      4       0.000    
    425      1     16      5       0.000    
    426      1     16      6       0.000    
    427      1     16      7       0.000    
    428      1     16      8       0.000    
    429      1     16      9       0.000    
    430      1     16     10       0.000    
    431      1     16     11       0.000    
    432      1     16     12       0.000    
    433      1     16     13       0.000    
    434      1     16     14       0.000    
    435      1     16     15       0.000    
    436      1     16     16       0.000    
    437      1     16     17       0.000    
    438      1     16     18       0.000    
    439      1     16     19       0.000    
    440      1     16     20       0.000    
    441      1     16     21       0.000    
    442      1     16     22       0.000    
    443      1     16     23       0.000    
    444      1     16     24       0.000    
    445      1     16     25       0.000    
    446      1     16     26       0.000    
    447      1     16     27       0.000    
    448      1     16     28       0.000    
    449      1     16     29       0.000    
    450      1     16     30       0.000    
    451      1     17      1       0.000    
    452      1     17      2       0.000    
    453      1     17      3       0.000    
    454      1     17      4       0.000    
    455      1     17      5       0.000    
    456      1     17      6       0.000    
    457      1     17      7       0.000    
    458      1     17      8       0.000    
    459      1     17      9       0.000    
    460      1     17     10       0.000    
    461      1     17     11       0.000    
    462      1     17     12       0.000    
    463      1     17     13       0.000    
    464      1     17     14       0.000    
    465      1     17     15       0.000    
    466      1     17     16       0.000    
    467      1     17     17       0.000    
    468      1     17     18       0.000    
    469      1     17     19       0.000    
    470      1     17     20       0.000    
    471      1     17     21       0.000    
    472      1     17     22       0.000    
    473      1     17     23       0.000    
    474      1     17     24       0.000    
    475      1     17     25       0.000    
    476      1     17     26       0.000    
    477      1     17     27       0.000    
    478      1     17     28       0.000    
    479      1     17     29       0.000    
    480      1     17     30       0.000    
    481      1     18      1       0.000    
    482      1     18      2       0.000    
    483      1     18      3       0.000    
    484      1     18      4       0.000    
    485      1     18      5       0.000    
    486      1     18      6       0.000    
    487      1     18      7       0.000    
    488      1     18      8       0.000    
    489      1     18      9       0.000    
    490      1     18     10       0.000    
    491      1     18     11       0.000    
    492      1     18     12       0.000    
    493      1     18     13       0.000    
    494      1     18     14       0.000    
    495      1     18     15       0.000    
    496      1     18     16       0.000    
    497      1     18     17       0.000    
    498      1     18     18       0.000    
    499      1     18     19       0.000    
    500      1     18     20       0.000    
    501      1     18     21       0.000    
    502      1     18     22       0.000    
    503      1     18     23       0.000    
    504      1     18     24       0.000    
    505      1     18     25       0.000    
    506      1     18     26       0.000    
    507      1     18     27       0.000    
    508      1     18     28       0.000    
    509      1     18     29       0.000    
    510      1     18     30       0.000    
    511      1     19      1       0.000    
    512      1     19      2       0.000    
    513      1     19      3       0.000    
    514      1     19      4       0.000    
    515      1     19      5       0.000    
    516      1     19      6       0.000    
    517      1     19      7       0.000    
    518      1     19      8       0.000    
    519      1     19      9       0.000    
    520      1     19     10       0.000    
    521      1     19     11       0.000    
    522      1     19     12       0.000    
    523      1     19     13       0.000    
    524      1     19     14       0.000    
    525      1     19     15       0.000    
    526      1     19     16       0.000    
    527      1     19     17       0.000    
    528      1     19     18       0.000    
    529      1     19     19       0.000    
    530      1     19     20       0.000    
    531      1     19     21       0.000    
    532      1     19     22       0.000    
    533      1     19     23       0.000    
    534      1     19     24       0.000    
    535      1     19     25       0.000    
    536      1     19     26       0.000    
    537      1     19     27       0.000    
    538      1     19     28       0.000    
    539      1     19     29       0.000    
    540      1     19     30       0.000    
    541      1     20      1       0.000    
    542      1     20      2       0.000    
    543      1     20      3       0.000    
    544      1     20      4       0.000    
    545      1     20      5       0.000    
    546      1     20      6       0.000    
    547      1     20      7       0.000    
    548      1     20      8       0.000    
    549      1     20      9       0.000    
    550      1     20     10       0.000    
    551      1     20     11       0.000    
    552      1     20     12       0.000    
    553      1     20     13       0.000    
    554      1     20     14       0.000    
    555      1     20     15       0.000    
    556      1     20     16       0.000    
    557      1     20     17       0.000    
    558      1     20     18       0.000    
    559      1     20     19       0.000    
    560      1     20     20       0.000    
    561      1     20     21       0.000    
    562      1     20     22       0.000    
    563      1     20     23       0.000    
    564      1     20     24       0.000    
    565      1     20     25       0.000    
    566      1     20     26       0.000    
    567      1     20     27       0.000    
    568      1     20     28       0.000    
    569      1     20     29       0.000    
    570      1     20     30       0.000    
    571      1     21      1       0.000    
    572      1     21      2       0.000    
    573      1     21      3       0.000    
    574      1     21      4       0.000    
    575      1     21      5       0.000    
    576      1     21      6       0.000    
    577      1     21      7       0.000    
    578      1     21      8       0.000    
    579      1     21      9       0.000    
    580      1     21     10       0.000    
    581      1     21     11       0.000    
    582      1     21     12       0.000    
    583      1     21     13       0.000    
    584      1     21     14       0.000    
    585      1     21     15       0.000    
    586      1     21     16       0.000    
    587      1     21     17       0.000    
    588      1     21     18       0.000    
    589      1     21     19       0.000    
    590      1     21     20       0.000    
    591      1     21     21       0.000    
    592      1     21     22       0.000    
    593      1     21     23       0.000    
    594      1     21     24       0.000    
    595      1     21     25       0.000    
    596      1     21     26       0.000    
    597      1     21     27       0.000    
    598      1     21     28       0.000    
    599      1     21     29       0.000    
    600      1     21     30       0.000    
    601      1     22      1       0.000    
    602      1     22      2       0.000    
    603      1     22      3       0.000    
    604      1     22      4       0.000    
    605      1     22      5       0.000    
    606      1     22      6       0.000    
    607      1     22      7       0.000    
    608      1     22      8       0.000    
    609      1     22      9       0.000    
    610      1     22     10       0.000    
    611      1     22     11       0.000    
    612      1     22     12       0.000    
    613      1     22     13       0.000    
    614      1     22     14       0.000    
    615      1     22     15       0.000    
    616      1     22     16       0.000    
    617      1     22     17       0.000    
    618      1     22     18       0.000    
    619      1     22     19       0.000    
    620      1     22     20       0.000    
    621      1     22     21       0.000    
    622      1     22     22       0.000    
    623      1     22     23       0.000    
    624      1     22     24       0.000    
    625      1     22     25       0.000    
    626      1     22     26       0.000    
    627      1     22     27       0.000    
    628      1     22     28       0.000    
    629      1     22     29       0.000    
    630      1     22     30       0.000    
    631      1     23      1       0.000    
    632      1     23      2       0.000    
    633      1     23      3       0.000    
    634      1     23      4       0.000    
    635      1     23      5       0.000    
    636      1     23      6       0.000    
    637      1     23      7       0.000    
    638      1     23      8       0.000    
    639      1     23      9       0.000    
    640      1     23     10       0.000    
    641      1     23     11       0.000    
    642      1     23     12       0.000    
    643      1     23     13       0.000    
    644      1     23     14       0.000    
    645      1     23     15       0.000    
    646      1     23     16       0.000    
    647      1     23     17       0.000    
    648      1     23     18       0.000    
    649      1     23     19       0.000    
    650      1     23     20       0.000    
    651      1     23     21       0.000    
    652      1     23     22       0.000    
    653      1     23     23       0.000    
    654      1     23     24       0.000    
    655      1     23     25       0.000    
    656      1     23     26       0.000    
    657      1     23     27       0.000    
    658      1     23     28       0.000    
    659      1     23     29       0.000    
    660      1     23     30       0.000    
    661      1     24      1       0.000    
    662      1     24      2       0.000    
    663      1     24      3       0.000    
    664      1     24      4       0.000    
    665      1     24      5       0.000    
    666      1     24      6       0.000    
    667      1     24      7       0.000    
    668      1     24      8       0.000    
    669      1     24      9       0.000    
    670      1     24     10       0.000    
    671      1     24     11       0.000    
    672      1     24     12       0.000    
    673      1     24     13       0.000    
    674      1     24     14       0.000    
    675      1     24     15       0.000    
    676      1     24     16       0.000    
    677      1     24     17       0.000    
    678      1     24     18       0.000    
    679      1     24     19       0.000    
    680      1     24     20       0.000    
    681      1     24     21       0.000    
    682      1     24     22       0.000    
    683      1     24     23       0.000    
    684      1     24     24       0.000    
    685      1     24     25       0.000    
    686      1     24     26       0.000    
    687      1     24     27       0.000    
    688      1     24     28       0.000    
    689      1     24     29       0.000    
    690      1     24     30       0.000    

    690 WELLS

                 RECHARGE =   0.00000    

 REUSING STREAM SEGMENT DATA FROM LAST STRESS PERIOD

 SOLVING FOR HEAD 


     5 CALLS TO PCG ROUTINE FOR TIME STEP   1 IN STRESS PERIOD   11
    18 TOTAL ITERATIONS

 OUTPUT CONTROL FOR STRESS PERIOD   11   TIME STEP    1
    SAVE HEAD FOR ALL LAYERS
    SAVE BUDGET



 STREAM LISTING     PERIOD     11   STEP        1

 LAYER ROW COL. STREAM  RCH.  FLOW INTO     FLOW TO   FLOW OUT OF   OVRLND.     DIRECT     STREAM       STREAM     STREAM     STREAM   STREAMBED  STREAMBED
                SEG.NO.  NO.  STRM. RCH.    AQUIFER    STRM. RCH.    RUNOFF     PRECIP       ET          HEAD       DEPTH      WIDTH   CONDCTNC.   GRADIENT

   1   13    1     1     1    1.0000E+05 -2.7519E+04   1.2752E+05  0.000E+00  0.000E+00  0.000E+00  4.84176E+01  1.563E-01  2.000E+01  2.000E+04 -1.376E+00
   1   13    2     1     2    1.2752E+05 -3.7205E+04   1.6472E+05  0.000E+00  0.000E+00  0.000E+00  4.79657E+01  1.816E-01  2.000E+01  2.000E+04 -1.860E+00
   1   14    3     1     3    1.6472E+05 -3.2688E+04   1.9741E+05  0.000E+00  0.000E+00  0.000E+00  4.75134E+01  2.066E-01  2.000E+01  2.000E+04 -1.634E+00
   1   15    4     1     4    1.9741E+05 -3.1938E+04   2.2935E+05  0.000E+00  0.000E+00  0.000E+00  4.70575E+01  2.279E-01  2.000E+01  2.000E+04 -1.597E+00
   1   16    5     1     5    2.2935E+05 -3.3493E+04   2.6284E+05  0.000E+00  0.000E+00  0.000E+00  4.66006E+01  2.483E-01  2.000E+01  2.000E+04 -1.675E+00
   1   16    6     1     6    2.6284E+05 -2.9276E+04   2.9212E+05  0.000E+00  0.000E+00  0.000E+00  4.61418E+01  2.668E-01  2.000E+01  2.000E+04 -1.464E+00
   1   16    7     1     7    2.9212E+05 -2.9113E+04   3.2123E+05  0.000E+00  0.000E+00  0.000E+00  4.56811E+01  2.834E-01  2.000E+01  2.000E+04 -1.456E+00
   1   16    8     1     8    3.2123E+05 -2.9310E+04   3.5054E+05  0.000E+00  0.000E+00  0.000E+00  4.52197E+01  2.993E-01  2.000E+01  2.000E+04 -1.466E+00
   1   16    9     1     9    3.5054E+05 -2.9409E+04   3.7995E+05  0.000E+00  0.000E+00  0.000E+00  4.47579E+01  3.147E-01  2.000E+01  2.000E+04 -1.470E+00
   1   16   10     1    10    3.7995E+05 -2.9459E+04   4.0941E+05  0.000E+00  0.000E+00  0.000E+00  4.42956E+01  3.297E-01  2.000E+01  2.000E+04 -1.473E+00
   1   16   11     1    11    4.0941E+05 -3.0088E+04   4.3950E+05  0.000E+00  0.000E+00  0.000E+00  4.38330E+01  3.444E-01  2.000E+01  2.000E+04 -1.504E+00
   1   16   12     1    12    4.3950E+05 -3.5611E+04   4.7511E+05  0.000E+00  0.000E+00  0.000E+00  4.33715E+01  3.601E-01  2.000E+01  2.000E+04 -1.781E+00
   1   15   13     1    13    4.7511E+05 -3.4332E+04   5.0944E+05  0.000E+00  0.000E+00  0.000E+00  4.29105E+01  3.764E-01  2.000E+01  2.000E+04 -1.717E+00
   1   14   14     1    14    5.0944E+05 -3.4916E+04   5.4436E+05  0.000E+00  0.000E+00  0.000E+00  4.24489E+01  3.921E-01  2.000E+01  2.000E+04 -1.746E+00
   1   13   15     1    15    5.4436E+05 -3.7140E+04   5.8150E+05  0.000E+00  0.000E+00  0.000E+00  4.19875E+01  4.079E-01  2.000E+01  2.000E+04 -1.857E+00
   1   12   16     1    16    5.8150E+05 -4.3187E+04   6.2468E+05  0.000E+00  0.000E+00  0.000E+00  4.15274E+01  4.252E-01  2.000E+01  2.000E+04 -2.159E+00
   1   12   17     1    17    6.2468E+05 -3.3788E+04   6.5847E+05  0.000E+00  0.000E+00  0.000E+00  4.10662E+01  4.412E-01  2.000E+01  2.000E+04 -1.689E+00
   1   12   18     1    18    6.5847E+05 -3.2183E+04   6.9065E+05  0.000E+00  0.000E+00  0.000E+00  4.06024E+01  4.547E-01  2.000E+01  2.000E+04 -1.609E+00
   1   12   19     1    19    6.9065E+05 -3.6241E+04   7.2690E+05  0.000E+00  0.000E+00  0.000E+00  4.01389E+01  4.684E-01  2.000E+01  2.000E+04 -1.812E+00
   1   13   20     1    20    7.2690E+05 -2.6576E+04   7.5347E+05  0.000E+00  0.000E+00  0.000E+00  3.96739E+01  4.808E-01  2.000E+01  2.000E+04 -1.329E+00
   1   14   21     1    21    7.5347E+05 -1.9538E+04   7.7301E+05  0.000E+00  0.000E+00  0.000E+00  3.92056E+01  4.897E-01  2.000E+01  2.000E+04 -9.769E-01
   1   14   22     1    22    7.7301E+05 -1.6762E+03   7.7469E+05  0.000E+00  0.000E+00  0.000E+00  3.87324E+01  4.938E-01  2.000E+01  2.000E+04 -8.381E-02
   1    9   30     2     1    5.0000E+04 -2.6356E+04   7.6356E+04  0.000E+00  0.000E+00  0.000E+00  4.02583E+01  1.333E-01  2.000E+01  2.000E+04 -1.318E+00
   1    9   29     2     2    7.6356E+04 -2.8824E+04   1.0518E+05  0.000E+00  0.000E+00  0.000E+00  4.00407E+01  1.657E-01  2.000E+01  2.000E+04 -1.441E+00
   1    9   28     2     3    1.0518E+05 -3.3109E+04   1.3829E+05  0.000E+00  0.000E+00  0.000E+00  3.98226E+01  1.976E-01  2.000E+01  2.000E+04 -1.655E+00
   1    9   27     2     4    1.3829E+05 -4.7196E+04   1.8548E+05  0.000E+00  0.000E+00  0.000E+00  3.96095E+01  2.345E-01  2.000E+01  2.000E+04 -2.360E+00
   1   10   26     2     5    1.8548E+05 -3.3169E+04   2.1865E+05  0.000E+00  0.000E+00  0.000E+00  3.93928E+01  2.678E-01  2.000E+01  2.000E+04 -1.658E+00
   1   11   25     2     6    2.1865E+05 -2.4842E+04   2.4349E+05  0.000E+00  0.000E+00  0.000E+00  3.91653E+01  2.903E-01  2.000E+01  2.000E+04 -1.242E+00
   1   12   24     2     7    2.4349E+05 -1.8311E+04   2.6181E+05  0.000E+00  0.000E+00  0.000E+00  3.89313E+01  3.063E-01  2.000E+01  2.000E+04 -9.156E-01
   1   13   23     2     8    2.6181E+05 -1.3016E+04   2.7482E+05  0.000E+00  0.000E+00  0.000E+00  3.86925E+01  3.175E-01  2.000E+01  2.000E+04 -6.508E-01
   1   14   22     2     9    2.7482E+05 -7.3305E+03   2.8215E+05  0.000E+00  0.000E+00  0.000E+00  3.84497E+01  3.247E-01  2.000E+01  2.000E+04 -3.665E-01
   1   14   22     3     1    1.0568E+06 -1.5291E+04   1.0721E+06  0.000E+00  0.000E+00  0.000E+00  3.80517E+01  4.961E-01  2.000E+01  2.000E+04 -7.645E-01
   1   15   23     3     2    1.0721E+06 -2.3526E+04   1.0957E+06  0.000E+00  0.000E+00  0.000E+00  3.71682E+01  5.015E-01  2.000E+01  2.000E+04 -1.176E+00
   1   15   24     3     3    1.0957E+06 -1.9579E+04   1.1152E+06  0.000E+00  0.000E+00  0.000E+00  3.62853E+01  5.075E-01  2.000E+01  2.000E+04 -9.790E-01
   1   15   25     3     4    1.1152E+06 -1.9170E+04   1.1344E+06  0.000E+00  0.000E+00  0.000E+00  3.54017E+01  5.128E-01  2.000E+01  2.000E+04 -9.585E-01
   1   15   26     3     5    1.1344E+06 -2.1892E+04   1.1563E+06  0.000E+00  0.000E+00  0.000E+00  3.45184E+01  5.184E-01  2.000E+01  2.000E+04 -1.095E+00
   1   16   27     3     6    1.1563E+06 -2.9029E+04   1.1853E+06  0.000E+00  0.000E+00  0.000E+00  3.36364E+01  5.253E-01  2.000E+01  2.000E+04 -1.451E+00
   1   17   28     3     7    1.1853E+06 -3.6084E+04   1.2214E+06  0.000E+00  0.000E+00  0.000E+00  3.27562E+01  5.340E-01  2.000E+01  2.000E+04 -1.804E+00
   1   18   29     3     8    1.2214E+06 -4.7092E+04   1.2685E+06  0.000E+00  0.000E+00  0.000E+00  3.18783E+01  5.450E-01  2.000E+01  2.000E+04 -2.355E+00
   1   18   30     3     9    1.2685E+06 -4.3549E+04   1.3120E+06  0.000E+00  0.000E+00  0.000E+00  3.10013E+01  5.568E-01  2.000E+01  2.000E+04 -2.177E+00




 HEAD WILL BE SAVED ON UNIT   51 AT END OF TIME STEP    1, STRESS PERIOD   11
1
  VOLUMETRIC BUDGET FOR ENTIRE MODEL AT END OF TIME STEP    1, STRESS PERIOD  11
  ------------------------------------------------------------------------------

     CUMULATIVE VOLUMES      L**3       RATES FOR THIS TIME STEP      L**3/T
     ------------------                 ------------------------

           IN:                                      IN:
           ---                                      ---
             STORAGE =    20358054.0000               STORAGE =        2516.2358
       CONSTANT HEAD =  1148902912.0000         CONSTANT HEAD =     1159532.6250
               WELLS =           0.0000                 WELLS =           0.0000
            RECHARGE =    23901600.0000              RECHARGE =           0.0000
      STREAM LEAKAGE =           0.0000        STREAM LEAKAGE =           0.0000

            TOTAL IN =  1193162496.0000              TOTAL IN =     1162048.8750

          OUT:                                     OUT:
          ----                                     ----
             STORAGE =      562398.9375               STORAGE =           0.0000
       CONSTANT HEAD =           0.0000         CONSTANT HEAD =           0.0000
               WELLS =           0.0000                 WELLS =           0.0000
            RECHARGE =           0.0000              RECHARGE =           0.0000
      STREAM LEAKAGE =  1192600064.0000        STREAM LEAKAGE =     1162048.8750

           TOTAL OUT =  1193162496.0000             TOTAL OUT =     1162048.8750

            IN - OUT =           0.0000              IN - OUT =           0.0000

 PERCENT DISCREPANCY =           0.00     PERCENT DISCREPANCY =           0.00






         TIME SUMMARY AT END OF TIME STEP    1 IN STRESS PERIOD   11
                    SECONDS     MINUTES      HOURS       DAYS        YEARS
                    -----------------------------------------------------------
   TIME STEP LENGTH 7.86240E+06 1.31040E+05  2184.0      91.000     0.24914    
 STRESS PERIOD TIME 7.86240E+06 1.31040E+05  2184.0      91.000     0.24914    
         TOTAL TIME 8.67456E+07 1.44576E+06  24096.      1004.0      2.7488    
1
1
                            STRESS PERIOD NO.   12, LENGTH =   91.00000    
                            -----------------------------------------------

                              NUMBER OF TIME STEPS =     1

                               MULTIPLIER FOR DELT =     1.500

                            INITIAL TIME STEP SIZE =   91.00000    

 WELL NO.  LAYER   ROW   COL   STRESS RATE         
 --------------------------------------------------
      1      1      2      1       0.000    
      2      1      2      2       0.000    
      3      1      2      3       0.000    
      4      1      2      4       0.000    
      5      1      2      5       0.000    
      6      1      2      6       0.000    
      7      1      2      7       0.000    
      8      1      2      8       0.000    
      9      1      2      9       0.000    
     10      1      2     10       0.000    
     11      1      2     11       0.000    
     12      1      2     12       0.000    
     13      1      2     13       0.000    
     14      1      2     14       0.000    
     15      1      2     15       0.000    
     16      1      2     16       0.000    
     17      1      2     17       0.000    
     18      1      2     18       0.000    
     19      1      2     19       0.000    
     20      1      2     20       0.000    
     21      1      2     21       0.000    
     22      1      2     22       0.000    
     23      1      2     23       0.000    
     24      1      2     24       0.000    
     25      1      2     25       0.000    
     26      1      2     26       0.000    
     27      1      2     27       0.000    
     28      1      2     28       0.000    
     29      1      2     29       0.000    
     30      1      2     30       0.000    
     31      1      3      1       0.000    
     32      1      3      2       0.000    
     33      1      3      3       0.000    
     34      1      3      4       0.000    
     35      1      3      5       0.000    
     36      1      3      6       0.000    
     37      1      3      7       0.000    
     38      1      3      8       0.000    
     39      1      3      9       0.000    
     40      1      3     10       0.000    
     41      1      3     11       0.000    
     42      1      3     12       0.000    
     43      1      3     13       0.000    
     44      1      3     14       0.000    
     45      1      3     15       0.000    
     46      1      3     16       0.000    
     47      1      3     17       0.000    
     48      1      3     18       0.000    
     49      1      3     19       0.000    
     50      1      3     20       0.000    
     51      1      3     21       0.000    
     52      1      3     22       0.000    
     53      1      3     23       0.000    
     54      1      3     24       0.000    
     55      1      3     25       0.000    
     56      1      3     26       0.000    
     57      1      3     27       0.000    
     58      1      3     28       0.000    
     59      1      3     29       0.000    
     60      1      3     30       0.000    
     61      1      4      1       0.000    
     62      1      4      2       0.000    
     63      1      4      3       0.000    
     64      1      4      4       0.000    
     65      1      4      5       0.000    
     66      1      4      6       0.000    
     67      1      4      7       0.000    
     68      1      4      8       0.000    
     69      1      4      9       0.000    
     70      1      4     10       0.000    
     71      1      4     11       0.000    
     72      1      4     12       0.000    
     73      1      4     13       0.000    
     74      1      4     14       0.000    
     75      1      4     15       0.000    
     76      1      4     16       0.000    
     77      1      4     17       0.000    
     78      1      4     18       0.000    
     79      1      4     19       0.000    
     80      1      4     20       0.000    
     81      1      4     21       0.000    
     82      1      4     22       0.000    
     83      1      4     23       0.000    
     84      1      4     24       0.000    
     85      1      4     25       0.000    
     86      1      4     26       0.000    
     87      1      4     27       0.000    
     88      1      4     28       0.000    
     89      1      4     29       0.000    
     90      1      4     30       0.000    
     91      1      5      1       0.000    
     92      1      5      2       0.000    
     93      1      5      3       0.000    
     94      1      5      4       0.000    
     95      1      5      5       0.000    
     96      1      5      6       0.000    
     97      1      5      7       0.000    
     98      1      5      8       0.000    
     99      1      5      9       0.000    
    100      1      5     10       0.000    
    101      1      5     11       0.000    
    102      1      5     12       0.000    
    103      1      5     13       0.000    
    104      1      5     14       0.000    
    105      1      5     15       0.000    
    106      1      5     16       0.000    
    107      1      5     17       0.000    
    108      1      5     18       0.000    
    109      1      5     19       0.000    
    110      1      5     20       0.000    
    111      1      5     21       0.000    
    112      1      5     22       0.000    
    113      1      5     23       0.000    
    114      1      5     24       0.000    
    115      1      5     25       0.000    
    116      1      5     26       0.000    
    117      1      5     27       0.000    
    118      1      5     28       0.000    
    119      1      5     29       0.000    
    120      1      5     30       0.000    
    121      1      6      1       0.000    
    122      1      6      2       0.000    
    123      1      6      3       0.000    
    124      1      6      4       0.000    
    125      1      6      5       0.000    
    126      1      6      6       0.000    
    127      1      6      7       0.000    
    128      1      6      8       0.000    
    129      1      6      9       0.000    
    130      1      6     10       0.000    
    131      1      6     11       0.000    
    132      1      6     12       0.000    
    133      1      6     13       0.000    
    134      1      6     14       0.000    
    135      1      6     15       0.000    
    136      1      6     16       0.000    
    137      1      6     17       0.000    
    138      1      6     18       0.000    
    139      1      6     19       0.000    
    140      1      6     20       0.000    
    141      1      6     21       0.000    
    142      1      6     22       0.000    
    143      1      6     23       0.000    
    144      1      6     24       0.000    
    145      1      6     25       0.000    
    146      1      6     26       0.000    
    147      1      6     27       0.000    
    148      1      6     28       0.000    
    149      1      6     29       0.000    
    150      1      6     30       0.000    
    151      1      7      1       0.000    
    152      1      7      2       0.000    
    153      1      7      3       0.000    
    154      1      7      4       0.000    
    155      1      7      5       0.000    
    156      1      7      6       0.000    
    157      1      7      7       0.000    
    158      1      7      8       0.000    
    159      1      7      9       0.000    
    160      1      7     10       0.000    
    161      1      7     11       0.000    
    162      1      7     12       0.000    
    163      1      7     13       0.000    
    164      1      7     14       0.000    
    165      1      7     15       0.000    
    166      1      7     16       0.000    
    167      1      7     17       0.000    
    168      1      7     18       0.000    
    169      1      7     19       0.000    
    170      1      7     20       0.000    
    171      1      7     21       0.000    
    172      1      7     22       0.000    
    173      1      7     23       0.000    
    174      1      7     24       0.000    
    175      1      7     25       0.000    
    176      1      7     26       0.000    
    177      1      7     27       0.000    
    178      1      7     28       0.000    
    179      1      7     29       0.000    
    180      1      7     30       0.000    
    181      1      8      1       0.000    
    182      1      8      2       0.000    
    183      1      8      3       0.000    
    184      1      8      4       0.000    
    185      1      8      5       0.000    
    186      1      8      6       0.000    
    187      1      8      7       0.000    
    188      1      8      8       0.000    
    189      1      8      9       0.000    
    190      1      8     10       0.000    
    191      1      8     11       0.000    
    192      1      8     12       0.000    
    193      1      8     13       0.000    
    194      1      8     14       0.000    
    195      1      8     15       0.000    
    196      1      8     16       0.000    
    197      1      8     17       0.000    
    198      1      8     18       0.000    
    199      1      8     19       0.000    
    200      1      8     20       0.000    
    201      1      8     21       0.000    
    202      1      8     22       0.000    
    203      1      8     23       0.000    
    204      1      8     24       0.000    
    205      1      8     25       0.000    
    206      1      8     26       0.000    
    207      1      8     27       0.000    
    208      1      8     28       0.000    
    209      1      8     29       0.000    
    210      1      8     30       0.000    
    211      1      9      1       0.000    
    212      1      9      2       0.000    
    213      1      9      3       0.000    
    214      1      9      4       0.000    
    215      1      9      5       0.000    
    216      1      9      6       0.000    
    217      1      9      7       0.000    
    218      1      9      8       0.000    
    219      1      9      9       0.000    
    220      1      9     10       0.000    
    221      1      9     11       0.000    
    222      1      9     12       0.000    
    223      1      9     13       0.000    
    224      1      9     14       0.000    
    225      1      9     15       0.000    
    226      1      9     16       0.000    
    227      1      9     17       0.000    
    228      1      9     18       0.000    
    229      1      9     19       0.000    
    230      1      9     20       0.000    
    231      1      9     21       0.000    
    232      1      9     22       0.000    
    233      1      9     23       0.000    
    234      1      9     24       0.000    
    235      1      9     25       0.000    
    236      1      9     26       0.000    
    237      1      9     27       0.000    
    238      1      9     28       0.000    
    239      1      9     29       0.000    
    240      1      9     30       0.000    
    241      1     10      1       0.000    
    242      1     10      2       0.000    
    243      1     10      3       0.000    
    244      1     10      4       0.000    
    245      1     10      5       0.000    
    246      1     10      6       0.000    
    247      1     10      7       0.000    
    248      1     10      8       0.000    
    249      1     10      9       0.000    
    250      1     10     10       0.000    
    251      1     10     11       0.000    
    252      1     10     12       0.000    
    253      1     10     13       0.000    
    254      1     10     14       0.000    
    255      1     10     15       0.000    
    256      1     10     16       0.000    
    257      1     10     17       0.000    
    258      1     10     18       0.000    
    259      1     10     19       0.000    
    260      1     10     20       0.000    
    261      1     10     21       0.000    
    262      1     10     22       0.000    
    263      1     10     23       0.000    
    264      1     10     24       0.000    
    265      1     10     25       0.000    
    266      1     10     26       0.000    
    267      1     10     27       0.000    
    268      1     10     28       0.000    
    269      1     10     29       0.000    
    270      1     10     30       0.000    
    271      1     11      1       0.000    
    272      1     11      2       0.000    
    273      1     11      3       0.000    
    274      1     11      4       0.000    
    275      1     11      5       0.000    
    276      1     11      6       0.000    
    277      1     11      7       0.000    
    278      1     11      8       0.000    
    279      1     11      9       0.000    
    280      1     11     10       0.000    
    281      1     11     11       0.000    
    282      1     11     12       0.000    
    283      1     11     13       0.000    
    284      1     11     14       0.000    
    285      1     11     15       0.000    
    286      1     11     16       0.000    
    287      1     11     17       0.000    
    288      1     11     18       0.000    
    289      1     11     19       0.000    
    290      1     11     20       0.000    
    291      1     11     21       0.000    
    292      1     11     22       0.000    
    293      1     11     23       0.000    
    294      1     11     24       0.000    
    295      1     11     25       0.000    
    296      1     11     26       0.000    
    297      1     11     27       0.000    
    298      1     11     28       0.000    
    299      1     11     29       0.000    
    300      1     11     30       0.000    
    301      1     12      1       0.000    
    302      1     12      2       0.000    
    303      1     12      3       0.000    
    304      1     12      4       0.000    
    305      1     12      5       0.000    
    306      1     12      6       0.000    
    307      1     12      7       0.000    
    308      1     12      8       0.000    
    309      1     12      9       0.000    
    310      1     12     10       0.000    
    311      1     12     11       0.000    
    312      1     12     12       0.000    
    313      1     12     13       0.000    
    314      1     12     14       0.000    
    315      1     12     15       0.000    
    316      1     12     16       0.000    
    317      1     12     17       0.000    
    318      1     12     18       0.000    
    319      1     12     19       0.000    
    320      1     12     20       0.000    
    321      1     12     21       0.000    
    322      1     12     22       0.000    
    323      1     12     23       0.000    
    324      1     12     24       0.000    
    325      1     12     25       0.000    
    326      1     12     26       0.000    
    327      1     12     27       0.000    
    328      1     12     28       0.000    
    329      1     12     29       0.000    
    330      1     12     30       0.000    
    331      1     13      1       0.000    
    332      1     13      2       0.000    
    333      1     13      3       0.000    
    334      1     13      4       0.000    
    335      1     13      5       0.000    
    336      1     13      6       0.000    
    337      1     13      7       0.000    
    338      1     13      8       0.000    
    339      1     13      9       0.000    
    340      1     13     10       0.000    
    341      1     13     11       0.000    
    342      1     13     12       0.000    
    343      1     13     13       0.000    
    344      1     13     14       0.000    
    345      1     13     15       0.000    
    346      1     13     16       0.000    
    347      1     13     17       0.000    
    348      1     13     18       0.000    
    349      1     13     19       0.000    
    350      1     13     20       0.000    
    351      1     13     21       0.000    
    352      1     13     22       0.000    
    353      1     13     23       0.000    
    354      1     13     24       0.000    
    355      1     13     25       0.000    
    356      1     13     26       0.000    
    357      1     13     27       0.000    
    358      1     13     28       0.000    
    359      1     13     29       0.000    
    360      1     13     30       0.000    
    361      1     14      1       0.000    
    362      1     14      2       0.000    
    363      1     14      3       0.000    
    364      1     14      4       0.000    
    365      1     14      5       0.000    
    366      1     14      6       0.000    
    367      1     14      7       0.000    
    368      1     14      8       0.000    
    369      1     14      9       0.000    
    370      1     14     10       0.000    
    371      1     14     11       0.000    
    372      1     14     12       0.000    
    373      1     14     13       0.000    
    374      1     14     14       0.000    
    375      1     14     15       0.000    
    376      1     14     16       0.000    
    377      1     14     17       0.000    
    378      1     14     18       0.000    
    379      1     14     19       0.000    
    380      1     14     20       0.000    
    381      1     14     21       0.000    
    382      1     14     22       0.000    
    383      1     14     23       0.000    
    384      1     14     24       0.000    
    385      1     14     25       0.000    
    386      1     14     26       0.000    
    387      1     14     27       0.000    
    388      1     14     28       0.000    
    389      1     14     29       0.000    
    390      1     14     30       0.000    
    391      1     15      1       0.000    
    392      1     15      2       0.000    
    393      1     15      3       0.000    
    394      1     15      4       0.000    
    395      1     15      5       0.000    
    396      1     15      6       0.000    
    397      1     15      7       0.000    
    398      1     15      8       0.000    
    399      1     15      9       0.000    
    400      1     15     10       0.000    
    401      1     15     11       0.000    
    402      1     15     12       0.000    
    403      1     15     13       0.000    
    404      1     15     14       0.000    
    405      1     15     15       0.000    
    406      1     15     16       0.000    
    407      1     15     17       0.000    
    408      1     15     18       0.000    
    409      1     15     19       0.000    
    410      1     15     20       0.000    
    411      1     15     21       0.000    
    412      1     15     22       0.000    
    413      1     15     23       0.000    
    414      1     15     24       0.000    
    415      1     15     25       0.000    
    416      1     15     26       0.000    
    417      1     15     27       0.000    
    418      1     15     28       0.000    
    419      1     15     29       0.000    
    420      1     15     30       0.000    
    421      1     16      1       0.000    
    422      1     16      2       0.000    
    423      1     16      3       0.000    
    424      1     16      4       0.000    
    425      1     16      5       0.000    
    426      1     16      6       0.000    
    427      1     16      7       0.000    
    428      1     16      8       0.000    
    429      1     16      9       0.000    
    430      1     16     10       0.000    
    431      1     16     11       0.000    
    432      1     16     12       0.000    
    433      1     16     13       0.000    
    434      1     16     14       0.000    
    435      1     16     15       0.000    
    436      1     16     16       0.000    
    437      1     16     17       0.000    
    438      1     16     18       0.000    
    439      1     16     19       0.000    
    440      1     16     20       0.000    
    441      1     16     21       0.000    
    442      1     16     22       0.000    
    443      1     16     23       0.000    
    444      1     16     24       0.000    
    445      1     16     25       0.000    
    446      1     16     26       0.000    
    447      1     16     27       0.000    
    448      1     16     28       0.000    
    449      1     16     29       0.000    
    450      1     16     30       0.000    
    451      1     17      1       0.000    
    452      1     17      2       0.000    
    453      1     17      3       0.000    
    454      1     17      4       0.000    
    455      1     17      5       0.000    
    456      1     17      6       0.000    
    457      1     17      7       0.000    
    458      1     17      8       0.000    
    459      1     17      9       0.000    
    460      1     17     10       0.000    
    461      1     17     11       0.000    
    462      1     17     12       0.000    
    463      1     17     13       0.000    
    464      1     17     14       0.000    
    465      1     17     15       0.000    
    466      1     17     16       0.000    
    467      1     17     17       0.000    
    468      1     17     18       0.000    
    469      1     17     19       0.000    
    470      1     17     20       0.000    
    471      1     17     21       0.000    
    472      1     17     22       0.000    
    473      1     17     23       0.000    
    474      1     17     24       0.000    
    475      1     17     25       0.000    
    476      1     17     26       0.000    
    477      1     17     27       0.000    
    478      1     17     28       0.000    
    479      1     17     29       0.000    
    480      1     17     30       0.000    
    481      1     18      1       0.000    
    482      1     18      2       0.000    
    483      1     18      3       0.000    
    484      1     18      4       0.000    
    485      1     18      5       0.000    
    486      1     18      6       0.000    
    487      1     18      7       0.000    
    488      1     18      8       0.000    
    489      1     18      9       0.000    
    490      1     18     10       0.000    
    491      1     18     11       0.000    
    492      1     18     12       0.000    
    493      1     18     13       0.000    
    494      1     18     14       0.000    
    495      1     18     15       0.000    
    496      1     18     16       0.000    
    497      1     18     17       0.000    
    498      1     18     18       0.000    
    499      1     18     19       0.000    
    500      1     18     20       0.000    
    501      1     18     21       0.000    
    502      1     18     22       0.000    
    503      1     18     23       0.000    
    504      1     18     24       0.000    
    505      1     18     25       0.000    
    506      1     18     26       0.000    
    507      1     18     27       0.000    
    508      1     18     28       0.000    
    509      1     18     29       0.000    
    510      1     18     30       0.000    
    511      1     19      1       0.000    
    512      1     19      2       0.000    
    513      1     19      3       0.000    
    514      1     19      4       0.000    
    515      1     19      5       0.000    
    516      1     19      6       0.000    
    517      1     19      7       0.000    
    518      1     19      8       0.000    
    519      1     19      9       0.000    
    520      1     19     10       0.000    
    521      1     19     11       0.000    
    522      1     19     12       0.000    
    523      1     19     13       0.000    
    524      1     19     14       0.000    
    525      1     19     15       0.000    
    526      1     19     16       0.000    
    527      1     19     17       0.000    
    528      1     19     18       0.000    
    529      1     19     19       0.000    
    530      1     19     20       0.000    
    531      1     19     21       0.000    
    532      1     19     22       0.000    
    533      1     19     23       0.000    
    534      1     19     24       0.000    
    535      1     19     25       0.000    
    536      1     19     26       0.000    
    537      1     19     27       0.000    
    538      1     19     28       0.000    
    539      1     19     29       0.000    
    540      1     19     30       0.000    
    541      1     20      1       0.000    
    542      1     20      2       0.000    
    543      1     20      3       0.000    
    544      1     20      4       0.000    
    545      1     20      5       0.000    
    546      1     20      6       0.000    
    547      1     20      7       0.000    
    548      1     20      8       0.000    
    549      1     20      9       0.000    
    550      1     20     10       0.000    
    551      1     20     11       0.000    
    552      1     20     12       0.000    
    553      1     20     13       0.000    
    554      1     20     14       0.000    
    555      1     20     15       0.000    
    556      1     20     16       0.000    
    557      1     20     17       0.000    
    558      1     20     18       0.000    
    559      1     20     19       0.000    
    560      1     20     20       0.000    
    561      1     20     21       0.000    
    562      1     20     22       0.000    
    563      1     20     23       0.000    
    564      1     20     24       0.000    
    565      1     20     25       0.000    
    566      1     20     26       0.000    
    567      1     20     27       0.000    
    568      1     20     28       0.000    
    569      1     20     29       0.000    
    570      1     20     30       0.000    
    571      1     21      1       0.000    
    572      1     21      2       0.000    
    573      1     21      3       0.000    
    574      1     21      4       0.000    
    575      1     21      5       0.000    
    576      1     21      6       0.000    
    577      1     21      7       0.000    
    578      1     21      8       0.000    
    579      1     21      9       0.000    
    580      1     21     10       0.000    
    581      1     21     11       0.000    
    582      1     21     12       0.000    
    583      1     21     13       0.000    
    584      1     21     14       0.000    
    585      1     21     15       0.000    
    586      1     21     16       0.000    
    587      1     21     17       0.000    
    588      1     21     18       0.000    
    589      1     21     19       0.000    
    590      1     21     20       0.000    
    591      1     21     21       0.000    
    592      1     21     22       0.000    
    593      1     21     23       0.000    
    594      1     21     24       0.000    
    595      1     21     25       0.000    
    596      1     21     26       0.000    
    597      1     21     27       0.000    
    598      1     21     28       0.000    
    599      1     21     29       0.000    
    600      1     21     30       0.000    
    601      1     22      1       0.000    
    602      1     22      2       0.000    
    603      1     22      3       0.000    
    604      1     22      4       0.000    
    605      1     22      5       0.000    
    606      1     22      6       0.000    
    607      1     22      7       0.000    
    608      1     22      8       0.000    
    609      1     22      9       0.000    
    610      1     22     10       0.000    
    611      1     22     11       0.000    
    612      1     22     12       0.000    
    613      1     22     13       0.000    
    614      1     22     14       0.000    
    615      1     22     15       0.000    
    616      1     22     16       0.000    
    617      1     22     17       0.000    
    618      1     22     18       0.000    
    619      1     22     19       0.000    
    620      1     22     20       0.000    
    621      1     22     21       0.000    
    622      1     22     22       0.000    
    623      1     22     23       0.000    
    624      1     22     24       0.000    
    625      1     22     25       0.000    
    626      1     22     26       0.000    
    627      1     22     27       0.000    
    628      1     22     28       0.000    
    629      1     22     29       0.000    
    630      1     22     30       0.000    
    631      1     23      1       0.000    
    632      1     23      2       0.000    
    633      1     23      3       0.000    
    634      1     23      4       0.000    
    635      1     23      5       0.000    
    636      1     23      6       0.000    
    637      1     23      7       0.000    
    638      1     23      8       0.000    
    639      1     23      9       0.000    
    640      1     23     10       0.000    
    641      1     23     11       0.000    
    642      1     23     12       0.000    
    643      1     23     13       0.000    
    644      1     23     14       0.000    
    645      1     23     15       0.000    
    646      1     23     16       0.000    
    647      1     23     17       0.000    
    648      1     23     18       0.000    
    649      1     23     19       0.000    
    650      1     23     20       0.000    
    651      1     23     21       0.000    
    652      1     23     22       0.000    
    653      1     23     23       0.000    
    654      1     23     24       0.000    
    655      1     23     25       0.000    
    656      1     23     26       0.000    
    657      1     23     27       0.000    
    658      1     23     28       0.000    
    659      1     23     29       0.000    
    660      1     23     30       0.000    
    661      1     24      1       0.000    
    662      1     24      2       0.000    
    663      1     24      3       0.000    
    664      1     24      4       0.000    
    665      1     24      5       0.000    
    666      1     24      6       0.000    
    667      1     24      7       0.000    
    668      1     24      8       0.000    
    669      1     24      9       0.000    
    670      1     24     10       0.000    
    671      1     24     11       0.000    
    672      1     24     12       0.000    
    673      1     24     13       0.000    
    674      1     24     14       0.000    
    675      1     24     15       0.000    
    676      1     24     16       0.000    
    677      1     24     17       0.000    
    678      1     24     18       0.000    
    679      1     24     19       0.000    
    680      1     24     20       0.000    
    681      1     24     21       0.000    
    682      1     24     22       0.000    
    683      1     24     23       0.000    
    684      1     24     24       0.000    
    685      1     24     25       0.000    
    686      1     24     26       0.000    
    687      1     24     27       0.000    
    688      1     24     28       0.000    
    689      1     24     29       0.000    
    690      1     24     30       0.000    

    690 WELLS

                 RECHARGE =  1.000000E-03

 REUSING STREAM SEGMENT DATA FROM LAST STRESS PERIOD

 SOLVING FOR HEAD 


     5 CALLS TO PCG ROUTINE FOR TIME STEP   1 IN STRESS PERIOD   12
    17 TOTAL ITERATIONS

 OUTPUT CONTROL FOR STRESS PERIOD   12   TIME STEP    1
    SAVE HEAD FOR ALL LAYERS
    SAVE BUDGET



 STREAM LISTING     PERIOD     12   STEP        1

 LAYER ROW COL. STREAM  RCH.  FLOW INTO     FLOW TO   FLOW OUT OF   OVRLND.     DIRECT     STREAM       STREAM     STREAM     STREAM   STREAMBED  STREAMBED
                SEG.NO.  NO.  STRM. RCH.    AQUIFER    STRM. RCH.    RUNOFF     PRECIP       ET          HEAD       DEPTH      WIDTH   CONDCTNC.   GRADIENT

   1   13    1     1     1    1.0000E+05 -2.7911E+04   1.2791E+05  0.000E+00  0.000E+00  0.000E+00  4.84178E+01  1.564E-01  2.000E+01  2.000E+04 -1.396E+00
   1   13    2     1     2    1.2791E+05 -3.7672E+04   1.6558E+05  0.000E+00  0.000E+00  0.000E+00  4.79662E+01  1.821E-01  2.000E+01  2.000E+04 -1.884E+00
   1   14    3     1     3    1.6558E+05 -3.3149E+04   1.9873E+05  0.000E+00  0.000E+00  0.000E+00  4.75141E+01  2.073E-01  2.000E+01  2.000E+04 -1.657E+00
   1   15    4     1     4    1.9873E+05 -3.2385E+04   2.3112E+05  0.000E+00  0.000E+00  0.000E+00  4.70585E+01  2.289E-01  2.000E+01  2.000E+04 -1.619E+00
   1   16    5     1     5    2.3112E+05 -3.3898E+04   2.6502E+05  0.000E+00  0.000E+00  0.000E+00  4.66018E+01  2.495E-01  2.000E+01  2.000E+04 -1.695E+00
   1   16    6     1     6    2.6502E+05 -2.9628E+04   2.9464E+05  0.000E+00  0.000E+00  0.000E+00  4.61432E+01  2.682E-01  2.000E+01  2.000E+04 -1.481E+00
   1   16    7     1     7    2.9464E+05 -2.9461E+04   3.2410E+05  0.000E+00  0.000E+00  0.000E+00  4.56826E+01  2.848E-01  2.000E+01  2.000E+04 -1.473E+00
   1   16    8     1     8    3.2410E+05 -2.9659E+04   3.5376E+05  0.000E+00  0.000E+00  0.000E+00  4.52213E+01  3.009E-01  2.000E+01  2.000E+04 -1.483E+00
   1   16    9     1     9    3.5376E+05 -2.9757E+04   3.8352E+05  0.000E+00  0.000E+00  0.000E+00  4.47596E+01  3.164E-01  2.000E+01  2.000E+04 -1.488E+00
   1   16   10     1    10    3.8352E+05 -2.9807E+04   4.1333E+05  0.000E+00  0.000E+00  0.000E+00  4.42974E+01  3.315E-01  2.000E+01  2.000E+04 -1.490E+00
   1   16   11     1    11    4.1333E+05 -3.0441E+04   4.4377E+05  0.000E+00  0.000E+00  0.000E+00  4.38350E+01  3.464E-01  2.000E+01  2.000E+04 -1.522E+00
   1   16   12     1    12    4.4377E+05 -3.6023E+04   4.7979E+05  0.000E+00  0.000E+00  0.000E+00  4.33736E+01  3.622E-01  2.000E+01  2.000E+04 -1.801E+00
   1   15   13     1    13    4.7979E+05 -3.4785E+04   5.1458E+05  0.000E+00  0.000E+00  0.000E+00  4.29127E+01  3.786E-01  2.000E+01  2.000E+04 -1.739E+00
   1   14   14     1    14    5.1458E+05 -3.5382E+04   5.4996E+05  0.000E+00  0.000E+00  0.000E+00  4.24513E+01  3.945E-01  2.000E+01  2.000E+04 -1.769E+00
   1   13   15     1    15    5.4996E+05 -3.7602E+04   5.8756E+05  0.000E+00  0.000E+00  0.000E+00  4.19900E+01  4.105E-01  2.000E+01  2.000E+04 -1.880E+00
   1   12   16     1    16    5.8756E+05 -4.3631E+04   6.3119E+05  0.000E+00  0.000E+00  0.000E+00  4.15301E+01  4.278E-01  2.000E+01  2.000E+04 -2.182E+00
   1   12   17     1    17    6.3119E+05 -3.4148E+04   6.6534E+05  0.000E+00  0.000E+00  0.000E+00  4.10690E+01  4.440E-01  2.000E+01  2.000E+04 -1.707E+00
   1   12   18     1    18    6.6534E+05 -3.2529E+04   6.9787E+05  0.000E+00  0.000E+00  0.000E+00  4.06053E+01  4.576E-01  2.000E+01  2.000E+04 -1.626E+00
   1   12   19     1    19    6.9787E+05 -3.6620E+04   7.3449E+05  0.000E+00  0.000E+00  0.000E+00  4.01418E+01  4.713E-01  2.000E+01  2.000E+04 -1.831E+00
   1   13   20     1    20    7.3449E+05 -2.6933E+04   7.6142E+05  0.000E+00  0.000E+00  0.000E+00  3.96770E+01  4.838E-01  2.000E+01  2.000E+04 -1.347E+00
   1   14   21     1    21    7.6142E+05 -1.9846E+04   7.8127E+05  0.000E+00  0.000E+00  0.000E+00  3.92087E+01  4.928E-01  2.000E+01  2.000E+04 -9.923E-01
   1   14   22     1    22    7.8127E+05 -1.7860E+03   7.8305E+05  0.000E+00  0.000E+00  0.000E+00  3.87356E+01  4.969E-01  2.000E+01  2.000E+04 -8.930E-02
   1    9   30     2     1    5.0000E+04 -2.6637E+04   7.6637E+04  0.000E+00  0.000E+00  0.000E+00  4.02585E+01  1.335E-01  2.000E+01  2.000E+04 -1.332E+00
   1    9   29     2     2    7.6637E+04 -2.9105E+04   1.0574E+05  0.000E+00  0.000E+00  0.000E+00  4.00412E+01  1.662E-01  2.000E+01  2.000E+04 -1.455E+00
   1    9   28     2     3    1.0574E+05 -3.3398E+04   1.3914E+05  0.000E+00  0.000E+00  0.000E+00  3.98233E+01  1.983E-01  2.000E+01  2.000E+04 -1.670E+00
   1    9   27     2     4    1.3914E+05 -4.7549E+04   1.8669E+05  0.000E+00  0.000E+00  0.000E+00  3.96104E+01  2.354E-01  2.000E+01  2.000E+04 -2.377E+00
   1   10   26     2     5    1.8669E+05 -3.3535E+04   2.2022E+05  0.000E+00  0.000E+00  0.000E+00  3.93939E+01  2.689E-01  2.000E+01  2.000E+04 -1.677E+00
   1   11   25     2     6    2.2022E+05 -2.5196E+04   2.4542E+05  0.000E+00  0.000E+00  0.000E+00  3.91666E+01  2.916E-01  2.000E+01  2.000E+04 -1.260E+00
   1   12   24     2     7    2.4542E+05 -1.8628E+04   2.6405E+05  0.000E+00  0.000E+00  0.000E+00  3.89328E+01  3.078E-01  2.000E+01  2.000E+04 -9.314E-01
   1   13   23     2     8    2.6405E+05 -1.3273E+04   2.7732E+05  0.000E+00  0.000E+00  0.000E+00  3.86942E+01  3.192E-01  2.000E+01  2.000E+04 -6.637E-01
   1   14   22     2     9    2.7732E+05 -7.4680E+03   2.8479E+05  0.000E+00  0.000E+00  0.000E+00  3.84515E+01  3.265E-01  2.000E+01  2.000E+04 -3.734E-01
   1   14   22     3     1    1.0678E+06 -1.5402E+04   1.0832E+06  0.000E+00  0.000E+00  0.000E+00  3.80548E+01  4.992E-01  2.000E+01  2.000E+04 -7.701E-01
   1   15   23     3     2    1.0832E+06 -2.3814E+04   1.1071E+06  0.000E+00  0.000E+00  0.000E+00  3.71713E+01  5.046E-01  2.000E+01  2.000E+04 -1.191E+00
   1   15   24     3     3    1.1071E+06 -1.9819E+04   1.1269E+06  0.000E+00  0.000E+00  0.000E+00  3.62884E+01  5.107E-01  2.000E+01  2.000E+04 -9.909E-01
   1   15   25     3     4    1.1269E+06 -1.9409E+04   1.1463E+06  0.000E+00  0.000E+00  0.000E+00  3.54049E+01  5.160E-01  2.000E+01  2.000E+04 -9.705E-01
   1   15   26     3     5    1.1463E+06 -2.2171E+04   1.1685E+06  0.000E+00  0.000E+00  0.000E+00  3.45217E+01  5.217E-01  2.000E+01  2.000E+04 -1.109E+00
   1   16   27     3     6    1.1685E+06 -2.9365E+04   1.1978E+06  0.000E+00  0.000E+00  0.000E+00  3.36397E+01  5.286E-01  2.000E+01  2.000E+04 -1.468E+00
   1   17   28     3     7    1.1978E+06 -3.6428E+04   1.2343E+06  0.000E+00  0.000E+00  0.000E+00  3.27596E+01  5.374E-01  2.000E+01  2.000E+04 -1.821E+00
   1   18   29     3     8    1.2343E+06 -4.7414E+04   1.2817E+06  0.000E+00  0.000E+00  0.000E+00  3.18817E+01  5.484E-01  2.000E+01  2.000E+04 -2.371E+00
   1   18   30     3     9    1.2817E+06 -4.3820E+04   1.3255E+06  0.000E+00  0.000E+00  0.000E+00  3.10047E+01  5.603E-01  2.000E+01  2.000E+04 -2.191E+00




 HEAD WILL BE SAVED ON UNIT   51 AT END OF TIME STEP    1, STRESS PERIOD   12
1
  VOLUMETRIC BUDGET FOR ENTIRE MODEL AT END OF TIME STEP    1, STRESS PERIOD  12
  ------------------------------------------------------------------------------

     CUMULATIVE VOLUMES      L**3       RATES FOR THIS TIME STEP      L**3/T
     ------------------                 ------------------------

           IN:                                      IN:
           ---                                      ---
             STORAGE =    20358054.0000               STORAGE =           0.0000
       CONSTANT HEAD =  1253467008.0000         CONSTANT HEAD =     1149056.3750
               WELLS =           0.0000                 WELLS =           0.0000
            RECHARGE =    26413200.0000              RECHARGE =       27600.0000
      STREAM LEAKAGE =           0.0000        STREAM LEAKAGE =           0.0000

            TOTAL IN =  1300238208.0000              TOTAL IN =     1176656.3750

          OUT:                                     OUT:
          ----                                     ----
             STORAGE =      668735.0625               STORAGE =        1168.5286
       CONSTANT HEAD =           0.0000         CONSTANT HEAD =           0.0000
               WELLS =           0.0000                 WELLS =           0.0000
            RECHARGE =           0.0000              RECHARGE =           0.0000
      STREAM LEAKAGE =  1299569408.0000        STREAM LEAKAGE =     1175486.8750

           TOTAL OUT =  1300238080.0000             TOTAL OUT =     1176655.3750

            IN - OUT =         128.0000              IN - OUT =           1.0000

 PERCENT DISCREPANCY =           0.00     PERCENT DISCREPANCY =           0.00






         TIME SUMMARY AT END OF TIME STEP    1 IN STRESS PERIOD   12
                    SECONDS     MINUTES      HOURS       DAYS        YEARS
                    -----------------------------------------------------------
   TIME STEP LENGTH 7.86240E+06 1.31040E+05  2184.0      91.000     0.24914    
 STRESS PERIOD TIME 7.86240E+06 1.31040E+05  2184.0      91.000     0.24914    
         TOTAL TIME 9.46080E+07 1.57680E+06  26280.      1095.0      2.9979    
1

 Run end date and time (yyyy/mm/dd hh:mm:ss): 2017/02/26 21:49:08
 Elapsed run time:  0.092 Seconds

